*HEADING
Zhaqing suspension bridge global screening model - LC01_G_DEAD DEAD_LOAD
** Abaqus/CalculiX common-keyword S4 shell + B31/T3D2 deck. Units N-mm-tonne-s.
** No calibrated fabrication-state cable prestress is included.
** FORCE_FOUND_PRESTRESS H_MAIN=716.150205kN T_TOWER=770.026785kN FIELD_RN=0.0053
** ----------------------------------------------------------------
** NODES
*NODE, NSET=NALL
1, 0., -2750, 0.
2, 0., -2350, 0.
3, 0., -783.333333, 0.
4, 0., 0., 0.
5, 0., 783.333333, 0.
6, 0., 2350, 0.
7, 0., 2750, 0.
8, 1000, -2750, 0.
9, 1000, -2350, 0.
10, 1000, -783.333333, 0.
11, 1000, 0., 0.
12, 1000, 783.333333, 0.
13, 1000, 2350, 0.
14, 1000, 2750, 0.
15, 2000, -2750, 0.
16, 2000, -2350, 0.
17, 2000, -783.333333, 0.
18, 2000, 0., 0.
19, 2000, 783.333333, 0.
20, 2000, 2350, 0.
** ... 771 like lines cut
*ELEMENT, TYPE=S4, ELSET=DECK_SHELLS
1, 1, 8, 9, 2
2, 2, 9, 10, 3
3, 3, 10, 11, 4
4, 4, 11, 12, 5
5, 5, 12, 13, 6
6, 6, 13, 14, 7
7, 8, 15, 16, 9
8, 9, 16, 17, 10
9, 10, 17, 18, 11
10, 11, 18, 19, 12
11, 12, 19, 20, 13
12, 13, 20, 21, 14
13, 15, 22, 23, 16
14, 16, 23, 24, 17
15, 17, 24, 25, 18
16, 18, 25, 26, 19
17, 19, 26, 27, 20
18, 20, 27, 28, 21
19, 22, 29, 30, 23
20, 23, 30, 31, 24
** ... 472 like lines cut
*ELEMENT, TYPE=B31, ELSET=CROSSBEAMS
493, 1, 2
494, 2, 3
495, 3, 4
496, 4, 5
497, 5, 6
498, 6, 7
499, 36, 37
500, 37, 38
501, 38, 39
502, 39, 40
503, 40, 41
504, 41, 42
505, 57, 58
506, 58, 59
507, 59, 60
508, 60, 61
509, 61, 62
510, 62, 63
511, 78, 79
512, 79, 80
** ... 142 like lines cut
*ELEMENT, TYPE=B31, ELSET=LONG_GIRDERS
655, 2, 9
656, 9, 16
657, 16, 23
658, 23, 30
659, 30, 37
660, 37, 44
661, 44, 51
662, 51, 58
663, 58, 65
664, 65, 72
665, 72, 79
666, 79, 86
667, 86, 93
668, 93, 100
669, 100, 107
670, 107, 114
671, 114, 121
672, 121, 128
673, 128, 135
674, 135, 142
** ... 144 like lines cut
*ELEMENT, TYPE=B31, ELSET=TOWER_COLUMNS
819, 582, 583
820, 584, 585
822, 586, 587
823, 588, 589
*ELEMENT, TYPE=B31, ELSET=TOWER_TOP_BEAMS
821, 583, 585
824, 587, 589
*ELEMENT, TYPE=B31, ELSET=MAIN_CABLES
825, 590, 591
826, 591, 592
827, 592, 593
828, 593, 594
829, 594, 595
830, 595, 596
831, 596, 597
832, 597, 585
833, 585, 598
834, 598, 599
835, 599, 600
836, 600, 601
837, 601, 602
838, 602, 603
839, 603, 604
840, 604, 605
841, 605, 606
842, 606, 607
843, 607, 608
844, 608, 609
** ... 176 like lines cut
*ELEMENT, TYPE=T3D2, ELSET=HANGERS
1021, 42, 602
1022, 63, 605
1023, 84, 608
1024, 105, 611
1025, 126, 614
1026, 147, 617
1027, 168, 620
1028, 189, 623
1029, 210, 626
1030, 231, 629
1031, 252, 632
1032, 273, 635
1033, 294, 638
1034, 315, 641
1035, 336, 644
1036, 357, 647
1037, 378, 650
1038, 399, 653
1039, 420, 656
1040, 441, 659
** ... 30 like lines cut
*ELEMENT, TYPE=B31, ELSET=WIND_ATTACH_LINKS
1071, 189, 784
1073, 183, 786
1075, 399, 788
1077, 393, 790
*ELEMENT, TYPE=T3D2, ELSET=WIND_CABLES
1072, 784, 785
1074, 786, 787
1076, 788, 789
1078, 790, 791
*ELEMENT, TYPE=MASS, ELSET=DECK_ACCESSORY_MASS
1079, 1
1080, 2
1081, 3
1082, 4
1083, 5
1084, 6
1085, 7
1086, 8
1087, 9
1088, 10
1089, 11
1090, 12
1091, 13
1092, 14
1093, 15
1094, 16
1095, 17
1096, 18
1097, 19
1098, 20
** ... 561 like lines cut
** NODE SETS
*NSET, NSET=DECK_NODES
1, 2, 3, 4, 5, 6, 7, 8, 9, 10, 11, 12, 13, 14, 15, 16
17, 18, 19, 20, 21, 22, 23, 24, 25, 26, 27, 28, 29, 30, 31, 32
33, 34, 35, 36, 37, 38, 39, 40, 41, 42, 43, 44, 45, 46, 47, 48
49, 50, 51, 52, 53, 54, 55, 56, 57, 58, 59, 60, 61, 62, 63, 64
65, 66, 67, 68, 69, 70, 71, 72, 73, 74, 75, 76, 77, 78, 79, 80
81, 82, 83, 84, 85, 86, 87, 88, 89, 90, 91, 92, 93, 94, 95, 96
97, 98, 99, 100, 101, 102, 103, 104, 105, 106, 107, 108, 109, 110, 111, 112
113, 114, 115, 116, 117, 118, 119, 120, 121, 122, 123, 124, 125, 126, 127, 128
129, 130, 131, 132, 133, 134, 135, 136, 137, 138, 139, 140, 141, 142, 143, 144
145, 146, 147, 148, 149, 150, 151, 152, 153, 154, 155, 156, 157, 158, 159, 160
161, 162, 163, 164, 165, 166, 167, 168, 169, 170, 171, 172, 173, 174, 175, 176
177, 178, 179, 180, 181, 182, 183, 184, 185, 186, 187, 188, 189, 190, 191, 192
193, 194, 195, 196, 197, 198, 199, 200, 201, 202, 203, 204, 205, 206, 207, 208
209, 210, 211, 212, 213, 214, 215, 216, 217, 218, 219, 220, 221, 222, 223, 224
225, 226, 227, 228, 229, 230, 231, 232, 233, 234, 235, 236, 237, 238, 239, 240
241, 242, 243, 244, 245, 246, 247, 248, 249, 250, 251, 252, 253, 254, 255, 256
257, 258, 259, 260, 261, 262, 263, 264, 265, 266, 267, 268, 269, 270, 271, 272
273, 274, 275, 276, 277, 278, 279, 280, 281, 282, 283, 284, 285, 286, 287, 288
289, 290, 291, 292, 293, 294, 295, 296, 297, 298, 299, 300, 301, 302, 303, 304
305, 306, 307, 308, 309, 310, 311, 312, 313, 314, 315, 316, 317, 318, 319, 320
** ... 17 like lines cut
*NSET, NSET=DECK_SHELL_NODES
1, 2, 3, 4, 5, 6, 7, 8, 9, 10, 11, 12, 13, 14, 15, 16
17, 18, 19, 20, 21, 22, 23, 24, 25, 26, 27, 28, 29, 30, 31, 32
33, 34, 35, 36, 37, 38, 39, 40, 41, 42, 43, 44, 45, 46, 47, 48
49, 50, 51, 52, 53, 54, 55, 56, 57, 58, 59, 60, 61, 62, 63, 64
65, 66, 67, 68, 69, 70, 71, 72, 73, 74, 75, 76, 77, 78, 79, 80
81, 82, 83, 84, 85, 86, 87, 88, 89, 90, 91, 92, 93, 94, 95, 96
97, 98, 99, 100, 101, 102, 103, 104, 105, 106, 107, 108, 109, 110, 111, 112
113, 114, 115, 116, 117, 118, 119, 120, 121, 122, 123, 124, 125, 126, 127, 128
129, 130, 131, 132, 133, 134, 135, 136, 137, 138, 139, 140, 141, 142, 143, 144
145, 146, 147, 148, 149, 150, 151, 152, 153, 154, 155, 156, 157, 158, 159, 160
161, 162, 163, 164, 165, 166, 167, 168, 169, 170, 171, 172, 173, 174, 175, 176
177, 178, 179, 180, 181, 182, 183, 184, 185, 186, 187, 188, 189, 190, 191, 192
193, 194, 195, 196, 197, 198, 199, 200, 201, 202, 203, 204, 205, 206, 207, 208
209, 210, 211, 212, 213, 214, 215, 216, 217, 218, 219, 220, 221, 222, 223, 224
225, 226, 227, 228, 229, 230, 231, 232, 233, 234, 235, 236, 237, 238, 239, 240
241, 242, 243, 244, 245, 246, 247, 248, 249, 250, 251, 252, 253, 254, 255, 256
257, 258, 259, 260, 261, 262, 263, 264, 265, 266, 267, 268, 269, 270, 271, 272
273, 274, 275, 276, 277, 278, 279, 280, 281, 282, 283, 284, 285, 286, 287, 288
289, 290, 291, 292, 293, 294, 295, 296, 297, 298, 299, 300, 301, 302, 303, 304
305, 306, 307, 308, 309, 310, 311, 312, 313, 314, 315, 316, 317, 318, 319, 320
** ... 17 like lines cut
*NSET, NSET=DECK_CENTER_NODES
4, 11, 18, 25, 32, 39, 46, 53, 60, 67, 74, 81, 88, 95, 102, 109
116, 123, 130, 137, 144, 151, 158, 165, 172, 179, 186, 193, 200, 207, 214, 221
228, 235, 242, 249, 256, 263, 270, 277, 284, 291, 298, 305, 312, 319, 326, 333
340, 347, 354, 361, 368, 375, 382, 389, 396, 403, 410, 417, 424, 431, 438, 445
452, 459, 466, 473, 480, 487, 494, 501, 508, 515, 522, 529, 536, 543, 550, 557
564, 571, 578
*NSET, NSET=GIRDER_NODES
2, 6, 9, 13, 16, 20, 23, 27, 30, 34, 37, 41, 44, 48, 51, 55
58, 62, 65, 69, 72, 76, 79, 83, 86, 90, 93, 97, 100, 104, 107, 111
114, 118, 121, 125, 128, 132, 135, 139, 142, 146, 149, 153, 156, 160, 163, 167
170, 174, 177, 181, 184, 188, 191, 195, 198, 202, 205, 209, 212, 216, 219, 223
226, 230, 233, 237, 240, 244, 247, 251, 254, 258, 261, 265, 268, 272, 275, 279
282, 286, 289, 293, 296, 300, 303, 307, 310, 314, 317, 321, 324, 328, 331, 335
338, 342, 345, 349, 352, 356, 359, 363, 366, 370, 373, 377, 380, 384, 387, 391
394, 398, 401, 405, 408, 412, 415, 419, 422, 426, 429, 433, 436, 440, 443, 447
450, 454, 457, 461, 464, 468, 471, 475, 478, 482, 485, 489, 492, 496, 499, 503
506, 510, 513, 517, 520, 524, 527, 531, 534, 538, 541, 545, 548, 552, 555, 559
562, 566, 569, 573, 576, 580
*NSET, NSET=PANEL_JOINT_NODES
3, 5, 10, 12, 17, 19, 24, 26, 31, 33, 38, 40, 45, 47, 52, 54
59, 61, 66, 68, 73, 75, 80, 82, 87, 89, 94, 96, 101, 103, 108, 110
115, 117, 122, 124, 129, 131, 136, 138, 143, 145, 150, 152, 157, 159, 164, 166
171, 173, 178, 180, 185, 187, 192, 194, 199, 201, 206, 208, 213, 215, 220, 222
227, 229, 234, 236, 241, 243, 248, 250, 255, 257, 262, 264, 269, 271, 276, 278
283, 285, 290, 292, 297, 299, 304, 306, 311, 313, 318, 320, 325, 327, 332, 334
339, 341, 346, 348, 353, 355, 360, 362, 367, 369, 374, 376, 381, 383, 388, 390
395, 397, 402, 404, 409, 411, 416, 418, 423, 425, 430, 432, 437, 439, 444, 446
451, 453, 458, 460, 465, 467, 472, 474, 479, 481, 486, 488, 493, 495, 500, 502
507, 509, 514, 516, 521, 523, 528, 530, 535, 537, 542, 544, 549, 551, 556, 558
563, 565, 570, 572, 577, 579
*NSET, NSET=DECK_EDGE_NODES
1, 7, 8, 14, 15, 21, 22, 28, 29, 35, 36, 42, 43, 49, 50, 56
57, 63, 64, 70, 71, 77, 78, 84, 85, 91, 92, 98, 99, 105, 106, 112
113, 119, 120, 126, 127, 133, 134, 140, 141, 147, 148, 154, 155, 161, 162, 168
169, 175, 176, 182, 183, 189, 190, 196, 197, 203, 204, 210, 211, 217, 218, 224
225, 231, 232, 238, 239, 245, 246, 252, 253, 259, 260, 266, 267, 273, 274, 280
281, 287, 288, 294, 295, 301, 302, 308, 309, 315, 316, 322, 323, 329, 330, 336
337, 343, 344, 350, 351, 357, 358, 364, 365, 371, 372, 378, 379, 385, 386, 392
393, 399, 400, 406, 407, 413, 414, 420, 421, 427, 428, 434, 435, 441, 442, 448
449, 455, 456, 462, 463, 469, 470, 476, 477, 483, 484, 490, 491, 497, 498, 504
505, 511, 512, 518, 519, 525, 526, 532, 533, 539, 540, 546, 547, 553, 554, 560
561, 567, 568, 574, 575, 581
*NSET, NSET=MIDSPAN_NODES
288, 289, 290, 291, 292, 293, 294
*NSET, NSET=MONITOR
4, 11, 18, 25, 32, 39, 46, 53, 60, 67, 74, 81, 88, 95, 102, 109
116, 123, 130, 137, 144, 151, 158, 165, 172, 179, 186, 193, 200, 207, 214, 221
228, 235, 242, 249, 256, 263, 270, 277, 284, 288, 289, 290, 291, 292, 293, 294
298, 305, 312, 319, 326, 333, 340, 347, 354, 361, 368, 375, 382, 389, 396, 403
410, 417, 424, 431, 438, 445, 452, 459, 466, 473, 480, 487, 494, 501, 508, 515
522, 529, 536, 543, 550, 557, 564, 571, 578, 583, 585, 587, 589, 590, 686, 687
783, 784, 785, 786, 787, 788, 789, 790, 791
*NSET, NSET=DECK_LEFT_PIN
2, 6
*NSET, NSET=DECK_RIGHT_ROLLER
576, 580
*NSET, NSET=TOWER_BASES
582, 584, 586, 588
*NSET, NSET=TOWER_TOPS
583, 585, 587, 589
*NSET, NSET=MAIN_CABLE_NODES
590, 591, 592, 593, 594, 595, 596, 597, 598, 599, 600, 601, 602, 603, 604, 605
606, 607, 608, 609, 610, 611, 612, 613, 614, 615, 616, 617, 618, 619, 620, 621
622, 623, 624, 625, 626, 627, 628, 629, 630, 631, 632, 633, 634, 635, 636, 637
638, 639, 640, 641, 642, 643, 644, 645, 646, 647, 648, 649, 650, 651, 652, 653
654, 655, 656, 657, 658, 659, 660, 661, 662, 663, 664, 665, 666, 667, 668, 669
670, 671, 672, 673, 674, 675, 676, 677, 678, 679, 680, 681, 682, 683, 684, 685
686, 687, 688, 689, 690, 691, 692, 693, 694, 695, 696, 697, 698, 699, 700, 701
702, 703, 704, 705, 706, 707, 708, 709, 710, 711, 712, 713, 714, 715, 716, 717
718, 719, 720, 721, 722, 723, 724, 725, 726, 727, 728, 729, 730, 731, 732, 733
734, 735, 736, 737, 738, 739, 740, 741, 742, 743, 744, 745, 746, 747, 748, 749
750, 751, 752, 753, 754, 755, 756, 757, 758, 759, 760, 761, 762, 763, 764, 765
766, 767, 768, 769, 770, 771, 772, 773, 774, 775, 776, 777, 778, 779, 780, 781
782, 783
*NSET, NSET=MAIN_CABLE_ANCHORS
590, 686, 687, 783
*NSET, NSET=WIND_ATTACH_NODES
784, 786, 788, 790
*NSET, NSET=WIND_ANCHORS
785, 787, 789, 791
*ELSET, ELSET=E_GRAV
1, 2, 3, 4, 5, 6, 7, 8, 9, 10, 11, 12, 13, 14, 15, 16
17, 18, 19, 20, 21, 22, 23, 24, 25, 26, 27, 28, 29, 30, 31, 32
33, 34, 35, 36, 37, 38, 39, 40, 41, 42, 43, 44, 45, 46, 47, 48
49, 50, 51, 52, 53, 54, 55, 56, 57, 58, 59, 60, 61, 62, 63, 64
65, 66, 67, 68, 69, 70, 71, 72, 73, 74, 75, 76, 77, 78, 79, 80
81, 82, 83, 84, 85, 86, 87, 88, 89, 90, 91, 92, 93, 94, 95, 96
97, 98, 99, 100, 101, 102, 103, 104, 105, 106, 107, 108, 109, 110, 111, 112
113, 114, 115, 116, 117, 118, 119, 120, 121, 122, 123, 124, 125, 126, 127, 128
129, 130, 131, 132, 133, 134, 135, 136, 137, 138, 139, 140, 141, 142, 143, 144
145, 146, 147, 148, 149, 150, 151, 152, 153, 154, 155, 156, 157, 158, 159, 160
161, 162, 163, 164, 165, 166, 167, 168, 169, 170, 171, 172, 173, 174, 175, 176
177, 178, 179, 180, 181, 182, 183, 184, 185, 186, 187, 188, 189, 190, 191, 192
193, 194, 195, 196, 197, 198, 199, 200, 201, 202, 203, 204, 205, 206, 207, 208
209, 210, 211, 212, 213, 214, 215, 216, 217, 218, 219, 220, 221, 222, 223, 224
225, 226, 227, 228, 229, 230, 231, 232, 233, 234, 235, 236, 237, 238, 239, 240
241, 242, 243, 244, 245, 246, 247, 248, 249, 250, 251, 252, 253, 254, 255, 256
257, 258, 259, 260, 261, 262, 263, 264, 265, 266, 267, 268, 269, 270, 271, 272
273, 274, 275, 276, 277, 278, 279, 280, 281, 282, 283, 284, 285, 286, 287, 288
289, 290, 291, 292, 293, 294, 295, 296, 297, 298, 299, 300, 301, 302, 303, 304
305, 306, 307, 308, 309, 310, 311, 312, 313, 314, 315, 316, 317, 318, 319, 320
** ... 48 like lines cut
*ELSET, ELSET=E_STRUCTURAL
1, 2, 3, 4, 5, 6, 7, 8, 9, 10, 11, 12, 13, 14, 15, 16
17, 18, 19, 20, 21, 22, 23, 24, 25, 26, 27, 28, 29, 30, 31, 32
33, 34, 35, 36, 37, 38, 39, 40, 41, 42, 43, 44, 45, 46, 47, 48
49, 50, 51, 52, 53, 54, 55, 56, 57, 58, 59, 60, 61, 62, 63, 64
65, 66, 67, 68, 69, 70, 71, 72, 73, 74, 75, 76, 77, 78, 79, 80
81, 82, 83, 84, 85, 86, 87, 88, 89, 90, 91, 92, 93, 94, 95, 96
97, 98, 99, 100, 101, 102, 103, 104, 105, 106, 107, 108, 109, 110, 111, 112
113, 114, 115, 116, 117, 118, 119, 120, 121, 122, 123, 124, 125, 126, 127, 128
129, 130, 131, 132, 133, 134, 135, 136, 137, 138, 139, 140, 141, 142, 143, 144
145, 146, 147, 148, 149, 150, 151, 152, 153, 154, 155, 156, 157, 158, 159, 160
161, 162, 163, 164, 165, 166, 167, 168, 169, 170, 171, 172, 173, 174, 175, 176
177, 178, 179, 180, 181, 182, 183, 184, 185, 186, 187, 188, 189, 190, 191, 192
193, 194, 195, 196, 197, 198, 199, 200, 201, 202, 203, 204, 205, 206, 207, 208
209, 210, 211, 212, 213, 214, 215, 216, 217, 218, 219, 220, 221, 222, 223, 224
225, 226, 227, 228, 229, 230, 231, 232, 233, 234, 235, 236, 237, 238, 239, 240
241, 242, 243, 244, 245, 246, 247, 248, 249, 250, 251, 252, 253, 254, 255, 256
257, 258, 259, 260, 261, 262, 263, 264, 265, 266, 267, 268, 269, 270, 271, 272
273, 274, 275, 276, 277, 278, 279, 280, 281, 282, 283, 284, 285, 286, 287, 288
289, 290, 291, 292, 293, 294, 295, 296, 297, 298, 299, 300, 301, 302, 303, 304
305, 306, 307, 308, 309, 310, 311, 312, 313, 314, 315, 316, 317, 318, 319, 320
** ... 48 like lines cut
** MATERIALS
*MATERIAL, NAME=STEEL_Q235_SCREEN
*ELASTIC
200000., 0.30
*DENSITY
7.85e-9
*MATERIAL, NAME=CONCRETE_C30_SCREEN
*ELASTIC
30000., 0.20
*DENSITY
2.50e-9
*MATERIAL, NAME=DECK_PANEL_EQUIV_SCREEN
*ELASTIC
30000, 0.2
*DENSITY
2.67908381e-09
*MATERIAL, NAME=MAIN_CABLE_WIRE_SCREEN
*ELASTIC
195000., 0.30
*DENSITY
7.85e-9
*MATERIAL, NAME=MC_PRE_001
*ELASTIC
195000., 0.30
*DENSITY
7.85e-9
*EXPANSION, ZERO=0.
7.106485843943e-04
*MATERIAL, NAME=MC_PRE_002
*ELASTIC
195000., 0.30
*DENSITY
7.85e-9
*EXPANSION, ZERO=0.
7.106485843943e-04
*MATERIAL, NAME=MC_PRE_003
*ELASTIC
195000., 0.30
*DENSITY
7.85e-9
*EXPANSION, ZERO=0.
7.106485843943e-04
*MATERIAL, NAME=MC_PRE_004
*ELASTIC
195000., 0.30
*DENSITY
7.85e-9
*EXPANSION, ZERO=0.
7.106485843943e-04
*MATERIAL, NAME=MC_PRE_005
*ELASTIC
195000., 0.30
*DENSITY
7.85e-9
*EXPANSION, ZERO=0.
7.106485843943e-04
*MATERIAL, NAME=MC_PRE_006
*ELASTIC
195000., 0.30
*DENSITY
7.85e-9
*EXPANSION, ZERO=0.
7.106485843943e-04
*MATERIAL, NAME=MC_PRE_007
*ELASTIC
195000., 0.30
*DENSITY
7.85e-9
*EXPANSION, ZERO=0.
7.106485843943e-04
*MATERIAL, NAME=MC_PRE_008
*ELASTIC
195000., 0.30
*DENSITY
7.85e-9
*EXPANSION, ZERO=0.
7.106485843943e-04
*MATERIAL, NAME=MC_PRE_009
*ELASTIC
195000., 0.30
*DENSITY
7.85e-9
*EXPANSION, ZERO=0.
7.106485843943e-04
*MATERIAL, NAME=MC_PRE_010
*ELASTIC
195000., 0.30
*DENSITY
7.85e-9
*EXPANSION, ZERO=0.
7.083044597260e-04
*MATERIAL, NAME=MC_PRE_011
*ELASTIC
195000., 0.30
*DENSITY
7.85e-9
*EXPANSION, ZERO=0.
7.060114469380e-04
*MATERIAL, NAME=MC_PRE_012
*ELASTIC
195000., 0.30
*DENSITY
7.85e-9
*EXPANSION, ZERO=0.
7.037700409031e-04
*MATERIAL, NAME=MC_PRE_013
*ELASTIC
195000., 0.30
*DENSITY
7.85e-9
*EXPANSION, ZERO=0.
7.015807386396e-04
*MATERIAL, NAME=MC_PRE_014
*ELASTIC
195000., 0.30
*DENSITY
7.85e-9
*EXPANSION, ZERO=0.
6.994440294116e-04
*MATERIAL, NAME=MC_PRE_015
*ELASTIC
195000., 0.30
*DENSITY
7.85e-9
*EXPANSION, ZERO=0.
6.973603987622e-04
*MATERIAL, NAME=MC_PRE_016
*ELASTIC
195000., 0.30
*DENSITY
7.85e-9
*EXPANSION, ZERO=0.
6.953303195679e-04
*MATERIAL, NAME=MC_PRE_017
*ELASTIC
195000., 0.30
*DENSITY
7.85e-9
*EXPANSION, ZERO=0.
6.933542643924e-04
*MATERIAL, NAME=MC_PRE_018
*ELASTIC
195000., 0.30
*DENSITY
7.85e-9
*EXPANSION, ZERO=0.
6.914326964239e-04
*MATERIAL, NAME=MC_PRE_019
*ELASTIC
195000., 0.30
*DENSITY
7.85e-9
*EXPANSION, ZERO=0.
6.895660730552e-04
*MATERIAL, NAME=MC_PRE_020
*ELASTIC
195000., 0.30
*DENSITY
7.85e-9
*EXPANSION, ZERO=0.
6.877548378170e-04
*MATERIAL, NAME=MC_PRE_021
*ELASTIC
195000., 0.30
*DENSITY
7.85e-9
*EXPANSION, ZERO=0.
6.859994313881e-04
*MATERIAL, NAME=MC_PRE_022
*ELASTIC
195000., 0.30
*DENSITY
7.85e-9
*EXPANSION, ZERO=0.
6.843002834145e-04
*MATERIAL, NAME=MC_PRE_023
*ELASTIC
195000., 0.30
*DENSITY
7.85e-9
*EXPANSION, ZERO=0.
6.826578139812e-04
*MATERIAL, NAME=MC_PRE_024
*ELASTIC
195000., 0.30
*DENSITY
7.85e-9
*EXPANSION, ZERO=0.
6.810724347407e-04
*MATERIAL, NAME=MC_PRE_025
*ELASTIC
195000., 0.30
*DENSITY
7.85e-9
*EXPANSION, ZERO=0.
6.795445420067e-04
*MATERIAL, NAME=MC_PRE_026
*ELASTIC
195000., 0.30
*DENSITY
7.85e-9
*EXPANSION, ZERO=0.
6.780745275217e-04
*MATERIAL, NAME=MC_PRE_027
*ELASTIC
195000., 0.30
*DENSITY
7.85e-9
*EXPANSION, ZERO=0.
6.766627640580e-04
*MATERIAL, NAME=MC_PRE_028
*ELASTIC
195000., 0.30
*DENSITY
7.85e-9
*EXPANSION, ZERO=0.
6.753096227503e-04
*MATERIAL, NAME=MC_PRE_029
*ELASTIC
195000., 0.30
*DENSITY
7.85e-9
*EXPANSION, ZERO=0.
6.740154523971e-04
*MATERIAL, NAME=MC_PRE_030
*ELASTIC
195000., 0.30
*DENSITY
7.85e-9
*EXPANSION, ZERO=0.
6.727805947358e-04
*MATERIAL, NAME=MC_PRE_031
*ELASTIC
195000., 0.30
*DENSITY
7.85e-9
*EXPANSION, ZERO=0.
6.716053781092e-04
*MATERIAL, NAME=MC_PRE_032
*ELASTIC
195000., 0.30
*DENSITY
7.85e-9
*EXPANSION, ZERO=0.
6.704901126010e-04
*MATERIAL, NAME=MC_PRE_033
*ELASTIC
195000., 0.30
*DENSITY
7.85e-9
*EXPANSION, ZERO=0.
6.694351024271e-04
*MATERIAL, NAME=MC_PRE_034
*ELASTIC
195000., 0.30
*DENSITY
7.85e-9
*EXPANSION, ZERO=0.
6.684406295461e-04
*MATERIAL, NAME=MC_PRE_035
*ELASTIC
195000., 0.30
*DENSITY
7.85e-9
*EXPANSION, ZERO=0.
6.675069665723e-04
*MATERIAL, NAME=MC_PRE_036
*ELASTIC
195000., 0.30
*DENSITY
7.85e-9
*EXPANSION, ZERO=0.
6.666343670919e-04
*MATERIAL, NAME=MC_PRE_037
*ELASTIC
195000., 0.30
*DENSITY
7.85e-9
*EXPANSION, ZERO=0.
6.658230721789e-04
*MATERIAL, NAME=MC_PRE_038
*ELASTIC
195000., 0.30
*DENSITY
7.85e-9
*EXPANSION, ZERO=0.
6.650733061818e-04
*MATERIAL, NAME=MC_PRE_039
*ELASTIC
195000., 0.30
*DENSITY
7.85e-9
*EXPANSION, ZERO=0.
6.643852774088e-04
*MATERIAL, NAME=MC_PRE_040
*ELASTIC
195000., 0.30
*DENSITY
7.85e-9
*EXPANSION, ZERO=0.
6.637591784536e-04
*MATERIAL, NAME=MC_PRE_041
*ELASTIC
195000., 0.30
*DENSITY
7.85e-9
*EXPANSION, ZERO=0.
6.631951834283e-04
*MATERIAL, NAME=MC_PRE_042
*ELASTIC
195000., 0.30
*DENSITY
7.85e-9
*EXPANSION, ZERO=0.
6.626934515715e-04
*MATERIAL, NAME=MC_PRE_043
*ELASTIC
195000., 0.30
*DENSITY
7.85e-9
*EXPANSION, ZERO=0.
6.622541243972e-04
*MATERIAL, NAME=MC_PRE_044
*ELASTIC
195000., 0.30
*DENSITY
7.85e-9
*EXPANSION, ZERO=0.
6.618773265246e-04
*MATERIAL, NAME=MC_PRE_045
*ELASTIC
195000., 0.30
*DENSITY
7.85e-9
*EXPANSION, ZERO=0.
6.615631640228e-04
*MATERIAL, NAME=MC_PRE_046
*ELASTIC
195000., 0.30
*DENSITY
7.85e-9
*EXPANSION, ZERO=0.
6.613117265997e-04
*MATERIAL, NAME=MC_PRE_047
*ELASTIC
195000., 0.30
*DENSITY
7.85e-9
*EXPANSION, ZERO=0.
6.611230858187e-04
*MATERIAL, NAME=MC_PRE_048
*ELASTIC
195000., 0.30
*DENSITY
7.85e-9
*EXPANSION, ZERO=0.
6.609972953764e-04
*MATERIAL, NAME=MC_PRE_049
*ELASTIC
195000., 0.30
*DENSITY
7.85e-9
*EXPANSION, ZERO=0.
6.609343911839e-04
*MATERIAL, NAME=MC_PRE_050
*ELASTIC
195000., 0.30
*DENSITY
7.85e-9
*EXPANSION, ZERO=0.
6.609343911839e-04
*MATERIAL, NAME=MC_PRE_051
*ELASTIC
195000., 0.30
*DENSITY
7.85e-9
*EXPANSION, ZERO=0.
6.609972953764e-04
*MATERIAL, NAME=MC_PRE_052
*ELASTIC
195000., 0.30
*DENSITY
7.85e-9
*EXPANSION, ZERO=0.
6.611230858187e-04
*MATERIAL, NAME=MC_PRE_053
*ELASTIC
195000., 0.30
*DENSITY
7.85e-9
*EXPANSION, ZERO=0.
6.613117265997e-04
*MATERIAL, NAME=MC_PRE_054
*ELASTIC
195000., 0.30
*DENSITY
7.85e-9
*EXPANSION, ZERO=0.
6.615631640228e-04
*MATERIAL, NAME=MC_PRE_055
*ELASTIC
195000., 0.30
*DENSITY
7.85e-9
*EXPANSION, ZERO=0.
6.618773265246e-04
*MATERIAL, NAME=MC_PRE_056
*ELASTIC
195000., 0.30
*DENSITY
7.85e-9
*EXPANSION, ZERO=0.
6.622541243972e-04
*MATERIAL, NAME=MC_PRE_057
*ELASTIC
195000., 0.30
*DENSITY
7.85e-9
*EXPANSION, ZERO=0.
6.626934515715e-04
*MATERIAL, NAME=MC_PRE_058
*ELASTIC
195000., 0.30
*DENSITY
7.85e-9
*EXPANSION, ZERO=0.
6.631951834283e-04
*MATERIAL, NAME=MC_PRE_059
*ELASTIC
195000., 0.30
*DENSITY
7.85e-9
*EXPANSION, ZERO=0.
6.637591784536e-04
*MATERIAL, NAME=MC_PRE_060
*ELASTIC
195000., 0.30
*DENSITY
7.85e-9
*EXPANSION, ZERO=0.
6.643852774088e-04
*MATERIAL, NAME=MC_PRE_061
*ELASTIC
195000., 0.30
*DENSITY
7.85e-9
*EXPANSION, ZERO=0.
6.650733061818e-04
*MATERIAL, NAME=MC_PRE_062
*ELASTIC
195000., 0.30
*DENSITY
7.85e-9
*EXPANSION, ZERO=0.
6.658230721789e-04
*MATERIAL, NAME=MC_PRE_063
*ELASTIC
195000., 0.30
*DENSITY
7.85e-9
*EXPANSION, ZERO=0.
6.666343670919e-04
*MATERIAL, NAME=MC_PRE_064
*ELASTIC
195000., 0.30
*DENSITY
7.85e-9
*EXPANSION, ZERO=0.
6.675069665723e-04
*MATERIAL, NAME=MC_PRE_065
*ELASTIC
195000., 0.30
*DENSITY
7.85e-9
*EXPANSION, ZERO=0.
6.684406295461e-04
*MATERIAL, NAME=MC_PRE_066
*ELASTIC
195000., 0.30
*DENSITY
7.85e-9
*EXPANSION, ZERO=0.
6.694351024271e-04
*MATERIAL, NAME=MC_PRE_067
*ELASTIC
195000., 0.30
*DENSITY
7.85e-9
*EXPANSION, ZERO=0.
6.704901126010e-04
*MATERIAL, NAME=MC_PRE_068
*ELASTIC
195000., 0.30
*DENSITY
7.85e-9
*EXPANSION, ZERO=0.
6.716053781092e-04
*MATERIAL, NAME=MC_PRE_069
*ELASTIC
195000., 0.30
*DENSITY
7.85e-9
*EXPANSION, ZERO=0.
6.727805947358e-04
*MATERIAL, NAME=MC_PRE_070
*ELASTIC
195000., 0.30
*DENSITY
7.85e-9
*EXPANSION, ZERO=0.
6.740154523971e-04
*MATERIAL, NAME=MC_PRE_071
*ELASTIC
195000., 0.30
*DENSITY
7.85e-9
*EXPANSION, ZERO=0.
6.753096227503e-04
*MATERIAL, NAME=MC_PRE_072
*ELASTIC
195000., 0.30
*DENSITY
7.85e-9
*EXPANSION, ZERO=0.
6.766627640580e-04
*MATERIAL, NAME=MC_PRE_073
*ELASTIC
195000., 0.30
*DENSITY
7.85e-9
*EXPANSION, ZERO=0.
6.780745275217e-04
*MATERIAL, NAME=MC_PRE_074
*ELASTIC
195000., 0.30
*DENSITY
7.85e-9
*EXPANSION, ZERO=0.
6.795445420067e-04
*MATERIAL, NAME=MC_PRE_075
*ELASTIC
195000., 0.30
*DENSITY
7.85e-9
*EXPANSION, ZERO=0.
6.810724347407e-04
*MATERIAL, NAME=MC_PRE_076
*ELASTIC
195000., 0.30
*DENSITY
7.85e-9
*EXPANSION, ZERO=0.
6.826578139812e-04
*MATERIAL, NAME=MC_PRE_077
*ELASTIC
195000., 0.30
*DENSITY
7.85e-9
*EXPANSION, ZERO=0.
6.843002834145e-04
*MATERIAL, NAME=MC_PRE_078
*ELASTIC
195000., 0.30
*DENSITY
7.85e-9
*EXPANSION, ZERO=0.
6.859994313881e-04
*MATERIAL, NAME=MC_PRE_079
*ELASTIC
195000., 0.30
*DENSITY
7.85e-9
*EXPANSION, ZERO=0.
6.877548378170e-04
*MATERIAL, NAME=MC_PRE_080
*ELASTIC
195000., 0.30
*DENSITY
7.85e-9
*EXPANSION, ZERO=0.
6.895660730552e-04
*MATERIAL, NAME=MC_PRE_081
*ELASTIC
195000., 0.30
*DENSITY
7.85e-9
*EXPANSION, ZERO=0.
6.914326964239e-04
*MATERIAL, NAME=MC_PRE_082
*ELASTIC
195000., 0.30
*DENSITY
7.85e-9
*EXPANSION, ZERO=0.
6.933542643924e-04
*MATERIAL, NAME=MC_PRE_083
*ELASTIC
195000., 0.30
*DENSITY
7.85e-9
*EXPANSION, ZERO=0.
6.953303195679e-04
*MATERIAL, NAME=MC_PRE_084
*ELASTIC
195000., 0.30
*DENSITY
7.85e-9
*EXPANSION, ZERO=0.
6.973603987622e-04
*MATERIAL, NAME=MC_PRE_085
*ELASTIC
195000., 0.30
*DENSITY
7.85e-9
*EXPANSION, ZERO=0.
6.994440294116e-04
*MATERIAL, NAME=MC_PRE_086
*ELASTIC
195000., 0.30
*DENSITY
7.85e-9
*EXPANSION, ZERO=0.
7.015807386396e-04
*MATERIAL, NAME=MC_PRE_087
*ELASTIC
195000., 0.30
*DENSITY
7.85e-9
*EXPANSION, ZERO=0.
7.037700409031e-04
*MATERIAL, NAME=MC_PRE_088
*ELASTIC
195000., 0.30
*DENSITY
7.85e-9
*EXPANSION, ZERO=0.
7.060114469380e-04
*MATERIAL, NAME=MC_PRE_089
*ELASTIC
195000., 0.30
*DENSITY
7.85e-9
*EXPANSION, ZERO=0.
7.083044597260e-04
*MATERIAL, NAME=MC_PRE_090
*ELASTIC
195000., 0.30
*DENSITY
7.85e-9
*EXPANSION, ZERO=0.
7.106485843943e-04
*MATERIAL, NAME=MC_PRE_091
*ELASTIC
195000., 0.30
*DENSITY
7.85e-9
*EXPANSION, ZERO=0.
7.106485843943e-04
*MATERIAL, NAME=MC_PRE_092
*ELASTIC
195000., 0.30
*DENSITY
7.85e-9
*EXPANSION, ZERO=0.
7.106485843943e-04
*MATERIAL, NAME=MC_PRE_093
*ELASTIC
195000., 0.30
*DENSITY
7.85e-9
*EXPANSION, ZERO=0.
7.106485843943e-04
*MATERIAL, NAME=MC_PRE_094
*ELASTIC
195000., 0.30
*DENSITY
7.85e-9
*EXPANSION, ZERO=0.
7.106485843943e-04
*MATERIAL, NAME=MC_PRE_095
*ELASTIC
195000., 0.30
*DENSITY
7.85e-9
*EXPANSION, ZERO=0.
7.106485843943e-04
*MATERIAL, NAME=MC_PRE_096
*ELASTIC
195000., 0.30
*DENSITY
7.85e-9
*EXPANSION, ZERO=0.
7.106485843943e-04
*MATERIAL, NAME=MC_PRE_097
*ELASTIC
195000., 0.30
*DENSITY
7.85e-9
*EXPANSION, ZERO=0.
7.106485843943e-04
*MATERIAL, NAME=MC_PRE_098
*ELASTIC
195000., 0.30
*DENSITY
7.85e-9
*EXPANSION, ZERO=0.
7.106485843943e-04
*MATERIAL, NAME=MC_PRE_099
*ELASTIC
195000., 0.30
*DENSITY
7.85e-9
*EXPANSION, ZERO=0.
7.106485843943e-04
*MATERIAL, NAME=MC_PRE_100
*ELASTIC
195000., 0.30
*DENSITY
7.85e-9
*EXPANSION, ZERO=0.
7.106485843943e-04
*MATERIAL, NAME=MC_PRE_101
*ELASTIC
195000., 0.30
*DENSITY
7.85e-9
*EXPANSION, ZERO=0.
7.106485843943e-04
*MATERIAL, NAME=MC_PRE_102
*ELASTIC
195000., 0.30
*DENSITY
7.85e-9
*EXPANSION, ZERO=0.
7.106485843943e-04
*MATERIAL, NAME=MC_PRE_103
*ELASTIC
195000., 0.30
*DENSITY
7.85e-9
*EXPANSION, ZERO=0.
7.106485843943e-04
*MATERIAL, NAME=MC_PRE_104
*ELASTIC
195000., 0.30
*DENSITY
7.85e-9
*EXPANSION, ZERO=0.
7.106485843943e-04
*MATERIAL, NAME=MC_PRE_105
*ELASTIC
195000., 0.30
*DENSITY
7.85e-9
*EXPANSION, ZERO=0.
7.106485843943e-04
*MATERIAL, NAME=MC_PRE_106
*ELASTIC
195000., 0.30
*DENSITY
7.85e-9
*EXPANSION, ZERO=0.
7.106485843943e-04
*MATERIAL, NAME=MC_PRE_107
*ELASTIC
195000., 0.30
*DENSITY
7.85e-9
*EXPANSION, ZERO=0.
7.106485843943e-04
*MATERIAL, NAME=MC_PRE_108
*ELASTIC
195000., 0.30
*DENSITY
7.85e-9
*EXPANSION, ZERO=0.
7.083044597260e-04
*MATERIAL, NAME=MC_PRE_109
*ELASTIC
195000., 0.30
*DENSITY
7.85e-9
*EXPANSION, ZERO=0.
7.060114469380e-04
*MATERIAL, NAME=MC_PRE_110
*ELASTIC
195000., 0.30
*DENSITY
7.85e-9
*EXPANSION, ZERO=0.
7.037700409031e-04
*MATERIAL, NAME=MC_PRE_111
*ELASTIC
195000., 0.30
*DENSITY
7.85e-9
*EXPANSION, ZERO=0.
7.015807386396e-04
*MATERIAL, NAME=MC_PRE_112
*ELASTIC
195000., 0.30
*DENSITY
7.85e-9
*EXPANSION, ZERO=0.
6.994440294116e-04
*MATERIAL, NAME=MC_PRE_113
*ELASTIC
195000., 0.30
*DENSITY
7.85e-9
*EXPANSION, ZERO=0.
6.973603987622e-04
*MATERIAL, NAME=MC_PRE_114
*ELASTIC
195000., 0.30
*DENSITY
7.85e-9
*EXPANSION, ZERO=0.
6.953303195679e-04
*MATERIAL, NAME=MC_PRE_115
*ELASTIC
195000., 0.30
*DENSITY
7.85e-9
*EXPANSION, ZERO=0.
6.933542643924e-04
*MATERIAL, NAME=MC_PRE_116
*ELASTIC
195000., 0.30
*DENSITY
7.85e-9
*EXPANSION, ZERO=0.
6.914326964239e-04
*MATERIAL, NAME=MC_PRE_117
*ELASTIC
195000., 0.30
*DENSITY
7.85e-9
*EXPANSION, ZERO=0.
6.895660730552e-04
*MATERIAL, NAME=MC_PRE_118
*ELASTIC
195000., 0.30
*DENSITY
7.85e-9
*EXPANSION, ZERO=0.
6.877548378170e-04
*MATERIAL, NAME=MC_PRE_119
*ELASTIC
195000., 0.30
*DENSITY
7.85e-9
*EXPANSION, ZERO=0.
6.859994313881e-04
*MATERIAL, NAME=MC_PRE_120
*ELASTIC
195000., 0.30
*DENSITY
7.85e-9
*EXPANSION, ZERO=0.
6.843002834145e-04
*MATERIAL, NAME=MC_PRE_121
*ELASTIC
195000., 0.30
*DENSITY
7.85e-9
*EXPANSION, ZERO=0.
6.826578139812e-04
*MATERIAL, NAME=MC_PRE_122
*ELASTIC
195000., 0.30
*DENSITY
7.85e-9
*EXPANSION, ZERO=0.
6.810724347407e-04
*MATERIAL, NAME=MC_PRE_123
*ELASTIC
195000., 0.30
*DENSITY
7.85e-9
*EXPANSION, ZERO=0.
6.795445420067e-04
*MATERIAL, NAME=MC_PRE_124
*ELASTIC
195000., 0.30
*DENSITY
7.85e-9
*EXPANSION, ZERO=0.
6.780745275217e-04
*MATERIAL, NAME=MC_PRE_125
*ELASTIC
195000., 0.30
*DENSITY
7.85e-9
*EXPANSION, ZERO=0.
6.766627640580e-04
*MATERIAL, NAME=MC_PRE_126
*ELASTIC
195000., 0.30
*DENSITY
7.85e-9
*EXPANSION, ZERO=0.
6.753096227503e-04
*MATERIAL, NAME=MC_PRE_127
*ELASTIC
195000., 0.30
*DENSITY
7.85e-9
*EXPANSION, ZERO=0.
6.740154523971e-04
*MATERIAL, NAME=MC_PRE_128
*ELASTIC
195000., 0.30
*DENSITY
7.85e-9
*EXPANSION, ZERO=0.
6.727805947358e-04
*MATERIAL, NAME=MC_PRE_129
*ELASTIC
195000., 0.30
*DENSITY
7.85e-9
*EXPANSION, ZERO=0.
6.716053781092e-04
*MATERIAL, NAME=MC_PRE_130
*ELASTIC
195000., 0.30
*DENSITY
7.85e-9
*EXPANSION, ZERO=0.
6.704901126010e-04
*MATERIAL, NAME=MC_PRE_131
*ELASTIC
195000., 0.30
*DENSITY
7.85e-9
*EXPANSION, ZERO=0.
6.694351024271e-04
*MATERIAL, NAME=MC_PRE_132
*ELASTIC
195000., 0.30
*DENSITY
7.85e-9
*EXPANSION, ZERO=0.
6.684406295461e-04
*MATERIAL, NAME=MC_PRE_133
*ELASTIC
195000., 0.30
*DENSITY
7.85e-9
*EXPANSION, ZERO=0.
6.675069665723e-04
*MATERIAL, NAME=MC_PRE_134
*ELASTIC
195000., 0.30
*DENSITY
7.85e-9
*EXPANSION, ZERO=0.
6.666343670919e-04
*MATERIAL, NAME=MC_PRE_135
*ELASTIC
195000., 0.30
*DENSITY
7.85e-9
*EXPANSION, ZERO=0.
6.658230721789e-04
*MATERIAL, NAME=MC_PRE_136
*ELASTIC
195000., 0.30
*DENSITY
7.85e-9
*EXPANSION, ZERO=0.
6.650733061818e-04
*MATERIAL, NAME=MC_PRE_137
*ELASTIC
195000., 0.30
*DENSITY
7.85e-9
*EXPANSION, ZERO=0.
6.643852774088e-04
*MATERIAL, NAME=MC_PRE_138
*ELASTIC
195000., 0.30
*DENSITY
7.85e-9
*EXPANSION, ZERO=0.
6.637591784536e-04
*MATERIAL, NAME=MC_PRE_139
*ELASTIC
195000., 0.30
*DENSITY
7.85e-9
*EXPANSION, ZERO=0.
6.631951834283e-04
*MATERIAL, NAME=MC_PRE_140
*ELASTIC
195000., 0.30
*DENSITY
7.85e-9
*EXPANSION, ZERO=0.
6.626934515715e-04
*MATERIAL, NAME=MC_PRE_141
*ELASTIC
195000., 0.30
*DENSITY
7.85e-9
*EXPANSION, ZERO=0.
6.622541243972e-04
*MATERIAL, NAME=MC_PRE_142
*ELASTIC
195000., 0.30
*DENSITY
7.85e-9
*EXPANSION, ZERO=0.
6.618773265246e-04
*MATERIAL, NAME=MC_PRE_143
*ELASTIC
195000., 0.30
*DENSITY
7.85e-9
*EXPANSION, ZERO=0.
6.615631640228e-04
*MATERIAL, NAME=MC_PRE_144
*ELASTIC
195000., 0.30
*DENSITY
7.85e-9
*EXPANSION, ZERO=0.
6.613117265997e-04
*MATERIAL, NAME=MC_PRE_145
*ELASTIC
195000., 0.30
*DENSITY
7.85e-9
*EXPANSION, ZERO=0.
6.611230858187e-04
*MATERIAL, NAME=MC_PRE_146
*ELASTIC
195000., 0.30
*DENSITY
7.85e-9
*EXPANSION, ZERO=0.
6.609972953764e-04
*MATERIAL, NAME=MC_PRE_147
*ELASTIC
195000., 0.30
*DENSITY
7.85e-9
*EXPANSION, ZERO=0.
6.609343911839e-04
*MATERIAL, NAME=MC_PRE_148
*ELASTIC
195000., 0.30
*DENSITY
7.85e-9
*EXPANSION, ZERO=0.
6.609343911839e-04
*MATERIAL, NAME=MC_PRE_149
*ELASTIC
195000., 0.30
*DENSITY
7.85e-9
*EXPANSION, ZERO=0.
6.609972953764e-04
*MATERIAL, NAME=MC_PRE_150
*ELASTIC
195000., 0.30
*DENSITY
7.85e-9
*EXPANSION, ZERO=0.
6.611230858187e-04
*MATERIAL, NAME=MC_PRE_151
*ELASTIC
195000., 0.30
*DENSITY
7.85e-9
*EXPANSION, ZERO=0.
6.613117265997e-04
*MATERIAL, NAME=MC_PRE_152
*ELASTIC
195000., 0.30
*DENSITY
7.85e-9
*EXPANSION, ZERO=0.
6.615631640228e-04
*MATERIAL, NAME=MC_PRE_153
*ELASTIC
195000., 0.30
*DENSITY
7.85e-9
*EXPANSION, ZERO=0.
6.618773265246e-04
*MATERIAL, NAME=MC_PRE_154
*ELASTIC
195000., 0.30
*DENSITY
7.85e-9
*EXPANSION, ZERO=0.
6.622541243972e-04
*MATERIAL, NAME=MC_PRE_155
*ELASTIC
195000., 0.30
*DENSITY
7.85e-9
*EXPANSION, ZERO=0.
6.626934515715e-04
*MATERIAL, NAME=MC_PRE_156
*ELASTIC
195000., 0.30
*DENSITY
7.85e-9
*EXPANSION, ZERO=0.
6.631951834283e-04
*MATERIAL, NAME=MC_PRE_157
*ELASTIC
195000., 0.30
*DENSITY
7.85e-9
*EXPANSION, ZERO=0.
6.637591784536e-04
*MATERIAL, NAME=MC_PRE_158
*ELASTIC
195000., 0.30
*DENSITY
7.85e-9
*EXPANSION, ZERO=0.
6.643852774088e-04
*MATERIAL, NAME=MC_PRE_159
*ELASTIC
195000., 0.30
*DENSITY
7.85e-9
*EXPANSION, ZERO=0.
6.650733061818e-04
*MATERIAL, NAME=MC_PRE_160
*ELASTIC
195000., 0.30
*DENSITY
7.85e-9
*EXPANSION, ZERO=0.
6.658230721789e-04
*MATERIAL, NAME=MC_PRE_161
*ELASTIC
195000., 0.30
*DENSITY
7.85e-9
*EXPANSION, ZERO=0.
6.666343670919e-04
*MATERIAL, NAME=MC_PRE_162
*ELASTIC
195000., 0.30
*DENSITY
7.85e-9
*EXPANSION, ZERO=0.
6.675069665723e-04
*MATERIAL, NAME=MC_PRE_163
*ELASTIC
195000., 0.30
*DENSITY
7.85e-9
*EXPANSION, ZERO=0.
6.684406295461e-04
*MATERIAL, NAME=MC_PRE_164
*ELASTIC
195000., 0.30
*DENSITY
7.85e-9
*EXPANSION, ZERO=0.
6.694351024271e-04
*MATERIAL, NAME=MC_PRE_165
*ELASTIC
195000., 0.30
*DENSITY
7.85e-9
*EXPANSION, ZERO=0.
6.704901126010e-04
*MATERIAL, NAME=MC_PRE_166
*ELASTIC
195000., 0.30
*DENSITY
7.85e-9
*EXPANSION, ZERO=0.
6.716053781092e-04
*MATERIAL, NAME=MC_PRE_167
*ELASTIC
195000., 0.30
*DENSITY
7.85e-9
*EXPANSION, ZERO=0.
6.727805947358e-04
*MATERIAL, NAME=MC_PRE_168
*ELASTIC
195000., 0.30
*DENSITY
7.85e-9
*EXPANSION, ZERO=0.
6.740154523971e-04
*MATERIAL, NAME=MC_PRE_169
*ELASTIC
195000., 0.30
*DENSITY
7.85e-9
*EXPANSION, ZERO=0.
6.753096227503e-04
*MATERIAL, NAME=MC_PRE_170
*ELASTIC
195000., 0.30
*DENSITY
7.85e-9
*EXPANSION, ZERO=0.
6.766627640580e-04
*MATERIAL, NAME=MC_PRE_171
*ELASTIC
195000., 0.30
*DENSITY
7.85e-9
*EXPANSION, ZERO=0.
6.780745275217e-04
*MATERIAL, NAME=MC_PRE_172
*ELASTIC
195000., 0.30
*DENSITY
7.85e-9
*EXPANSION, ZERO=0.
6.795445420067e-04
*MATERIAL, NAME=MC_PRE_173
*ELASTIC
195000., 0.30
*DENSITY
7.85e-9
*EXPANSION, ZERO=0.
6.810724347407e-04
*MATERIAL, NAME=MC_PRE_174
*ELASTIC
195000., 0.30
*DENSITY
7.85e-9
*EXPANSION, ZERO=0.
6.826578139812e-04
*MATERIAL, NAME=MC_PRE_175
*ELASTIC
195000., 0.30
*DENSITY
7.85e-9
*EXPANSION, ZERO=0.
6.843002834145e-04
*MATERIAL, NAME=MC_PRE_176
*ELASTIC
195000., 0.30
*DENSITY
7.85e-9
*EXPANSION, ZERO=0.
6.859994313881e-04
*MATERIAL, NAME=MC_PRE_177
*ELASTIC
195000., 0.30
*DENSITY
7.85e-9
*EXPANSION, ZERO=0.
6.877548378170e-04
*MATERIAL, NAME=MC_PRE_178
*ELASTIC
195000., 0.30
*DENSITY
7.85e-9
*EXPANSION, ZERO=0.
6.895660730552e-04
*MATERIAL, NAME=MC_PRE_179
*ELASTIC
195000., 0.30
*DENSITY
7.85e-9
*EXPANSION, ZERO=0.
6.914326964239e-04
*MATERIAL, NAME=MC_PRE_180
*ELASTIC
195000., 0.30
*DENSITY
7.85e-9
*EXPANSION, ZERO=0.
6.933542643924e-04
*MATERIAL, NAME=MC_PRE_181
*ELASTIC
195000., 0.30
*DENSITY
7.85e-9
*EXPANSION, ZERO=0.
6.953303195679e-04
*MATERIAL, NAME=MC_PRE_182
*ELASTIC
195000., 0.30
*DENSITY
7.85e-9
*EXPANSION, ZERO=0.
6.973603987622e-04
*MATERIAL, NAME=MC_PRE_183
*ELASTIC
195000., 0.30
*DENSITY
7.85e-9
*EXPANSION, ZERO=0.
6.994440294116e-04
*MATERIAL, NAME=MC_PRE_184
*ELASTIC
195000., 0.30
*DENSITY
7.85e-9
*EXPANSION, ZERO=0.
7.015807386396e-04
*MATERIAL, NAME=MC_PRE_185
*ELASTIC
195000., 0.30
*DENSITY
7.85e-9
*EXPANSION, ZERO=0.
7.037700409031e-04
*MATERIAL, NAME=MC_PRE_186
*ELASTIC
195000., 0.30
*DENSITY
7.85e-9
*EXPANSION, ZERO=0.
7.060114469380e-04
*MATERIAL, NAME=MC_PRE_187
*ELASTIC
195000., 0.30
*DENSITY
7.85e-9
*EXPANSION, ZERO=0.
7.083044597260e-04
*MATERIAL, NAME=MC_PRE_188
*ELASTIC
195000., 0.30
*DENSITY
7.85e-9
*EXPANSION, ZERO=0.
7.106485843943e-04
*MATERIAL, NAME=MC_PRE_189
*ELASTIC
195000., 0.30
*DENSITY
7.85e-9
*EXPANSION, ZERO=0.
7.106485843943e-04
*MATERIAL, NAME=MC_PRE_190
*ELASTIC
195000., 0.30
*DENSITY
7.85e-9
*EXPANSION, ZERO=0.
7.106485843943e-04
*MATERIAL, NAME=MC_PRE_191
*ELASTIC
195000., 0.30
*DENSITY
7.85e-9
*EXPANSION, ZERO=0.
7.106485843943e-04
*MATERIAL, NAME=MC_PRE_192
*ELASTIC
195000., 0.30
*DENSITY
7.85e-9
*EXPANSION, ZERO=0.
7.106485843943e-04
*MATERIAL, NAME=MC_PRE_193
*ELASTIC
195000., 0.30
*DENSITY
7.85e-9
*EXPANSION, ZERO=0.
7.106485843943e-04
*MATERIAL, NAME=MC_PRE_194
*ELASTIC
195000., 0.30
*DENSITY
7.85e-9
*EXPANSION, ZERO=0.
7.106485843943e-04
*MATERIAL, NAME=MC_PRE_195
*ELASTIC
195000., 0.30
*DENSITY
7.85e-9
*EXPANSION, ZERO=0.
7.106485843943e-04
*MATERIAL, NAME=MC_PRE_196
*ELASTIC
195000., 0.30
*DENSITY
7.85e-9
*EXPANSION, ZERO=0.
7.106485843943e-04
*MATERIAL, NAME=HG_PRE_01
*ELASTIC
200000., 0.30
*DENSITY
7.85e-9
*EXPANSION, ZERO=0.
1.642383127971e-04
*MATERIAL, NAME=HG_PRE_02
*ELASTIC
200000., 0.30
*DENSITY
7.85e-9
*EXPANSION, ZERO=0.
1.290592663524e-04
*MATERIAL, NAME=HG_PRE_03
*ELASTIC
200000., 0.30
*DENSITY
7.85e-9
*EXPANSION, ZERO=0.
1.288817711511e-04
*MATERIAL, NAME=HG_PRE_04
*ELASTIC
200000., 0.30
*DENSITY
7.85e-9
*EXPANSION, ZERO=0.
1.287211802550e-04
*MATERIAL, NAME=HG_PRE_05
*ELASTIC
200000., 0.30
*DENSITY
7.85e-9
*EXPANSION, ZERO=0.
1.285774936642e-04
*MATERIAL, NAME=HG_PRE_06
*ELASTIC
200000., 0.30
*DENSITY
7.85e-9
*EXPANSION, ZERO=0.
1.284507113768e-04
*MATERIAL, NAME=HG_PRE_07
*ELASTIC
200000., 0.30
*DENSITY
7.85e-9
*EXPANSION, ZERO=0.
1.283408333945e-04
*MATERIAL, NAME=HG_PRE_08
*ELASTIC
200000., 0.30
*DENSITY
7.85e-9
*EXPANSION, ZERO=0.
1.282478597195e-04
*MATERIAL, NAME=HG_PRE_09
*ELASTIC
200000., 0.30
*DENSITY
7.85e-9
*EXPANSION, ZERO=0.
1.281717903459e-04
*MATERIAL, NAME=HG_PRE_10
*ELASTIC
200000., 0.30
*DENSITY
7.85e-9
*EXPANSION, ZERO=0.
1.281126252794e-04
*MATERIAL, NAME=HG_PRE_11
*ELASTIC
200000., 0.30
*DENSITY
7.85e-9
*EXPANSION, ZERO=0.
1.280703645182e-04
*MATERIAL, NAME=HG_PRE_12
*ELASTIC
200000., 0.30
*DENSITY
7.85e-9
*EXPANSION, ZERO=0.
1.280450080601e-04
*MATERIAL, NAME=HG_PRE_13
*ELASTIC
200000., 0.30
*DENSITY
7.85e-9
*EXPANSION, ZERO=0.
1.280365559077e-04
*MATERIAL, NAME=HG_PRE_14
*ELASTIC
200000., 0.30
*DENSITY
7.85e-9
*EXPANSION, ZERO=0.
1.280450080601e-04
*MATERIAL, NAME=HG_PRE_15
*ELASTIC
200000., 0.30
*DENSITY
7.85e-9
*EXPANSION, ZERO=0.
1.280703645182e-04
*MATERIAL, NAME=HG_PRE_16
*ELASTIC
200000., 0.30
*DENSITY
7.85e-9
*EXPANSION, ZERO=0.
1.281126252794e-04
*MATERIAL, NAME=HG_PRE_17
*ELASTIC
200000., 0.30
*DENSITY
7.85e-9
*EXPANSION, ZERO=0.
1.281717903459e-04
*MATERIAL, NAME=HG_PRE_18
*ELASTIC
200000., 0.30
*DENSITY
7.85e-9
*EXPANSION, ZERO=0.
1.282478597195e-04
*MATERIAL, NAME=HG_PRE_19
*ELASTIC
200000., 0.30
*DENSITY
7.85e-9
*EXPANSION, ZERO=0.
1.283408333945e-04
*MATERIAL, NAME=HG_PRE_20
*ELASTIC
200000., 0.30
*DENSITY
7.85e-9
*EXPANSION, ZERO=0.
1.284507113768e-04
*MATERIAL, NAME=HG_PRE_21
*ELASTIC
200000., 0.30
*DENSITY
7.85e-9
*EXPANSION, ZERO=0.
1.285774936642e-04
*MATERIAL, NAME=HG_PRE_22
*ELASTIC
200000., 0.30
*DENSITY
7.85e-9
*EXPANSION, ZERO=0.
1.287211802550e-04
*MATERIAL, NAME=HG_PRE_23
*ELASTIC
200000., 0.30
*DENSITY
7.85e-9
*EXPANSION, ZERO=0.
1.288817711511e-04
*MATERIAL, NAME=HG_PRE_24
*ELASTIC
200000., 0.30
*DENSITY
7.85e-9
*EXPANSION, ZERO=0.
1.290592663524e-04
*MATERIAL, NAME=HG_PRE_25
*ELASTIC
200000., 0.30
*DENSITY
7.85e-9
*EXPANSION, ZERO=0.
1.642383127971e-04
*MATERIAL, NAME=HANGER_BAR_SCREEN
*ELASTIC
200000., 0.30
*DENSITY
7.85e-9
*MATERIAL, NAME=WIND_ROPE_SCREEN
*ELASTIC
100000., 0.30
*DENSITY
7.85e-9
** SECTIONS
*SHELL SECTION, ELSET=DECK_SHELLS, MATERIAL=DECK_PANEL_EQUIV_SCREEN, OFFSET=-0.5
50
*BEAM SECTION, ELSET=LONG_GIRDERS, MATERIAL=STEEL_Q235_SCREEN, SECTION=RECT
604.64126, 35.4821965
0., 0., 1.
*BEAM SECTION, ELSET=CROSSBEAMS, MATERIAL=STEEL_Q235_SCREEN, SECTION=RECT
420, 41.4123032
0., 0., 1.
*BEAM SECTION, ELSET=TOWER_COLUMNS, MATERIAL=CONCRETE_C30_SCREEN, SECTION=RECT
1500., 1000.
1., 0., 0.
*BEAM SECTION, ELSET=TOWER_TOP_BEAMS, MATERIAL=CONCRETE_C30_SCREEN, SECTION=RECT
500., 1500.
0., 0., 1.
*BEAM SECTION, ELSET=WIND_ATTACH_LINKS, MATERIAL=STEEL_Q235_SCREEN, SECTION=RECT
160., 160.
1., 0., 0.
*ELSET, ELSET=MCSEG_001
825
*ELSET, ELSET=MCSEG_002
826
*ELSET, ELSET=MCSEG_003
827
*ELSET, ELSET=MCSEG_004
828
*ELSET, ELSET=MCSEG_005
829
*ELSET, ELSET=MCSEG_006
830
*ELSET, ELSET=MCSEG_007
831
*ELSET, ELSET=MCSEG_008
832
*ELSET, ELSET=MCSEG_009
833
*ELSET, ELSET=MCSEG_010
834
*ELSET, ELSET=MCSEG_011
835
*ELSET, ELSET=MCSEG_012
836
*ELSET, ELSET=MCSEG_013
837
*ELSET, ELSET=MCSEG_014
838
*ELSET, ELSET=MCSEG_015
839
*ELSET, ELSET=MCSEG_016
840
*ELSET, ELSET=MCSEG_017
841
*ELSET, ELSET=MCSEG_018
842
*ELSET, ELSET=MCSEG_019
843
*ELSET, ELSET=MCSEG_020
** ... 353 like lines cut
*ELSET, ELSET=HGSTA_01
1021, 1046
*ELSET, ELSET=HGSTA_02
1022, 1047
*ELSET, ELSET=HGSTA_03
1023, 1048
*ELSET, ELSET=HGSTA_04
1024, 1049
*ELSET, ELSET=HGSTA_05
1025, 1050
*ELSET, ELSET=HGSTA_06
1026, 1051
*ELSET, ELSET=HGSTA_07
1027, 1052
*ELSET, ELSET=HGSTA_08
1028, 1053
*ELSET, ELSET=HGSTA_09
1029, 1054
*ELSET, ELSET=HGSTA_10
1030, 1055
*ELSET, ELSET=HGSTA_11
1031, 1056
*ELSET, ELSET=HGSTA_12
1032, 1057
*ELSET, ELSET=HGSTA_13
1033, 1058
*ELSET, ELSET=HGSTA_14
1034, 1059
*ELSET, ELSET=HGSTA_15
1035, 1060
*ELSET, ELSET=HGSTA_16
1036, 1061
*ELSET, ELSET=HGSTA_17
1037, 1062
*ELSET, ELSET=HGSTA_18
1038, 1063
*ELSET, ELSET=HGSTA_19
1039, 1064
*ELSET, ELSET=HGSTA_20
1040, 1065
** ... 10 like lines cut
*BEAM SECTION, ELSET=MCSEG_001, MATERIAL=MC_PRE_001, SECTION=RECT
74.5432224, 74.5432224
0., 1., 0.
*BEAM SECTION, ELSET=MCSEG_002, MATERIAL=MC_PRE_002, SECTION=RECT
74.5432224, 74.5432224
0., 1., 0.
*BEAM SECTION, ELSET=MCSEG_003, MATERIAL=MC_PRE_003, SECTION=RECT
74.5432224, 74.5432224
0., 1., 0.
*BEAM SECTION, ELSET=MCSEG_004, MATERIAL=MC_PRE_004, SECTION=RECT
74.5432224, 74.5432224
0., 1., 0.
*BEAM SECTION, ELSET=MCSEG_005, MATERIAL=MC_PRE_005, SECTION=RECT
74.5432224, 74.5432224
0., 1., 0.
*BEAM SECTION, ELSET=MCSEG_006, MATERIAL=MC_PRE_006, SECTION=RECT
74.5432224, 74.5432224
0., 1., 0.
*BEAM SECTION, ELSET=MCSEG_007, MATERIAL=MC_PRE_007, SECTION=RECT
74.5432224, 74.5432224
0., 1., 0.
*BEAM SECTION, ELSET=MCSEG_008, MATERIAL=MC_PRE_008, SECTION=RECT
74.5432224, 74.5432224
0., 1., 0.
*BEAM SECTION, ELSET=MCSEG_009, MATERIAL=MC_PRE_009, SECTION=RECT
74.5432224, 74.5432224
0., 1., 0.
*BEAM SECTION, ELSET=MCSEG_010, MATERIAL=MC_PRE_010, SECTION=RECT
74.5432224, 74.5432224
0., 1., 0.
*BEAM SECTION, ELSET=MCSEG_011, MATERIAL=MC_PRE_011, SECTION=RECT
74.5432224, 74.5432224
0., 1., 0.
*BEAM SECTION, ELSET=MCSEG_012, MATERIAL=MC_PRE_012, SECTION=RECT
74.5432224, 74.5432224
0., 1., 0.
*BEAM SECTION, ELSET=MCSEG_013, MATERIAL=MC_PRE_013, SECTION=RECT
74.5432224, 74.5432224
0., 1., 0.
*BEAM SECTION, ELSET=MCSEG_014, MATERIAL=MC_PRE_014, SECTION=RECT
74.5432224, 74.5432224
0., 1., 0.
*BEAM SECTION, ELSET=MCSEG_015, MATERIAL=MC_PRE_015, SECTION=RECT
74.5432224, 74.5432224
0., 1., 0.
*BEAM SECTION, ELSET=MCSEG_016, MATERIAL=MC_PRE_016, SECTION=RECT
74.5432224, 74.5432224
0., 1., 0.
*BEAM SECTION, ELSET=MCSEG_017, MATERIAL=MC_PRE_017, SECTION=RECT
74.5432224, 74.5432224
0., 1., 0.
*BEAM SECTION, ELSET=MCSEG_018, MATERIAL=MC_PRE_018, SECTION=RECT
74.5432224, 74.5432224
0., 1., 0.
*BEAM SECTION, ELSET=MCSEG_019, MATERIAL=MC_PRE_019, SECTION=RECT
74.5432224, 74.5432224
0., 1., 0.
*BEAM SECTION, ELSET=MCSEG_020, MATERIAL=MC_PRE_020, SECTION=RECT
74.5432224, 74.5432224
0., 1., 0.
** ... 528 like lines cut
*SOLID SECTION, ELSET=HGSTA_01, MATERIAL=HG_PRE_01
804.247719
*SOLID SECTION, ELSET=HGSTA_02, MATERIAL=HG_PRE_02
804.247719
*SOLID SECTION, ELSET=HGSTA_03, MATERIAL=HG_PRE_03
804.247719
*SOLID SECTION, ELSET=HGSTA_04, MATERIAL=HG_PRE_04
804.247719
*SOLID SECTION, ELSET=HGSTA_05, MATERIAL=HG_PRE_05
804.247719
*SOLID SECTION, ELSET=HGSTA_06, MATERIAL=HG_PRE_06
804.247719
*SOLID SECTION, ELSET=HGSTA_07, MATERIAL=HG_PRE_07
804.247719
*SOLID SECTION, ELSET=HGSTA_08, MATERIAL=HG_PRE_08
804.247719
*SOLID SECTION, ELSET=HGSTA_09, MATERIAL=HG_PRE_09
804.247719
*SOLID SECTION, ELSET=HGSTA_10, MATERIAL=HG_PRE_10
804.247719
*SOLID SECTION, ELSET=HGSTA_11, MATERIAL=HG_PRE_11
804.247719
*SOLID SECTION, ELSET=HGSTA_12, MATERIAL=HG_PRE_12
804.247719
*SOLID SECTION, ELSET=HGSTA_13, MATERIAL=HG_PRE_13
804.247719
*SOLID SECTION, ELSET=HGSTA_14, MATERIAL=HG_PRE_14
804.247719
*SOLID SECTION, ELSET=HGSTA_15, MATERIAL=HG_PRE_15
804.247719
*SOLID SECTION, ELSET=HGSTA_16, MATERIAL=HG_PRE_16
804.247719
*SOLID SECTION, ELSET=HGSTA_17, MATERIAL=HG_PRE_17
804.247719
*SOLID SECTION, ELSET=HGSTA_18, MATERIAL=HG_PRE_18
804.247719
*SOLID SECTION, ELSET=HGSTA_19, MATERIAL=HG_PRE_19
804.247719
*SOLID SECTION, ELSET=HGSTA_20, MATERIAL=HG_PRE_20
804.247719
** ... 10 like lines cut
*SOLID SECTION, ELSET=WIND_CABLES, MATERIAL=WIND_ROPE_SCREEN
452.389342
*ELSET, ELSET=MASS_1079
1079
*MASS, ELSET=MASS_1079
0.00133954191
*ELSET, ELSET=MASS_1080
1080
*MASS, ELSET=MASS_1080
0.00658608104
*ELSET, ELSET=MASS_1081
1081
*MASS, ELSET=MASS_1081
0.0078698087
*ELSET, ELSET=MASS_1082
1082
*MASS, ELSET=MASS_1082
0.00524653914
*ELSET, ELSET=MASS_1083
1083
*MASS, ELSET=MASS_1083
0.0078698087
*ELSET, ELSET=MASS_1084
1084
*MASS, ELSET=MASS_1084
0.00658608104
*ELSET, ELSET=MASS_1085
1085
*MASS, ELSET=MASS_1085
0.00133954191
*ELSET, ELSET=MASS_1086
1086
*MASS, ELSET=MASS_1086
0.00267908381
*ELSET, ELSET=MASS_1087
1087
*MASS, ELSET=MASS_1087
0.0131721621
*ELSET, ELSET=MASS_1088
1088
*MASS, ELSET=MASS_1088
0.0157396174
*ELSET, ELSET=MASS_1089
1089
*MASS, ELSET=MASS_1089
0.0104930783
*ELSET, ELSET=MASS_1090
1090
*MASS, ELSET=MASS_1090
0.0157396174
*ELSET, ELSET=MASS_1091
1091
*MASS, ELSET=MASS_1091
0.0131721621
*ELSET, ELSET=MASS_1092
1092
*MASS, ELSET=MASS_1092
0.00267908381
*ELSET, ELSET=MASS_1093
1093
*MASS, ELSET=MASS_1093
0.00267908381
*ELSET, ELSET=MASS_1094
1094
*MASS, ELSET=MASS_1094
0.0131721621
*ELSET, ELSET=MASS_1095
1095
*MASS, ELSET=MASS_1095
0.0157396174
*ELSET, ELSET=MASS_1096
1096
*MASS, ELSET=MASS_1096
0.0104930783
*ELSET, ELSET=MASS_1097
1097
*MASS, ELSET=MASS_1097
0.0157396174
*ELSET, ELSET=MASS_1098
1098
*MASS, ELSET=MASS_1098
0.0131721621
*ELSET, ELSET=MASS_1099
1099
*MASS, ELSET=MASS_1099
0.00267908381
*ELSET, ELSET=MASS_1100
1100
*MASS, ELSET=MASS_1100
0.00267908381
*ELSET, ELSET=MASS_1101
1101
*MASS, ELSET=MASS_1101
0.0131721621
*ELSET, ELSET=MASS_1102
1102
*MASS, ELSET=MASS_1102
0.0157396174
*ELSET, ELSET=MASS_1103
1103
*MASS, ELSET=MASS_1103
0.0104930783
*ELSET, ELSET=MASS_1104
1104
*MASS, ELSET=MASS_1104
0.0157396174
*ELSET, ELSET=MASS_1105
1105
*MASS, ELSET=MASS_1105
0.0131721621
*ELSET, ELSET=MASS_1106
1106
*MASS, ELSET=MASS_1106
0.00267908381
*ELSET, ELSET=MASS_1107
1107
*MASS, ELSET=MASS_1107
0.00267908381
*ELSET, ELSET=MASS_1108
1108
*MASS, ELSET=MASS_1108
0.0131721621
*ELSET, ELSET=MASS_1109
1109
*MASS, ELSET=MASS_1109
0.0157396174
*ELSET, ELSET=MASS_1110
1110
*MASS, ELSET=MASS_1110
0.0104930783
*ELSET, ELSET=MASS_1111
1111
*MASS, ELSET=MASS_1111
0.0157396174
*ELSET, ELSET=MASS_1112
1112
*MASS, ELSET=MASS_1112
0.0131721621
*ELSET, ELSET=MASS_1113
1113
*MASS, ELSET=MASS_1113
0.00267908381
*ELSET, ELSET=MASS_1114
1114
*MASS, ELSET=MASS_1114
0.00267908381
*ELSET, ELSET=MASS_1115
1115
*MASS, ELSET=MASS_1115
0.0131721621
*ELSET, ELSET=MASS_1116
1116
*MASS, ELSET=MASS_1116
0.0157396174
*ELSET, ELSET=MASS_1117
1117
*MASS, ELSET=MASS_1117
0.0104930783
*ELSET, ELSET=MASS_1118
1118
*MASS, ELSET=MASS_1118
0.0157396174
*ELSET, ELSET=MASS_1119
1119
*MASS, ELSET=MASS_1119
0.0131721621
*ELSET, ELSET=MASS_1120
1120
*MASS, ELSET=MASS_1120
0.00267908381
*ELSET, ELSET=MASS_1121
1121
*MASS, ELSET=MASS_1121
0.00267908381
*ELSET, ELSET=MASS_1122
1122
*MASS, ELSET=MASS_1122
0.0131721621
*ELSET, ELSET=MASS_1123
1123
*MASS, ELSET=MASS_1123
0.0157396174
*ELSET, ELSET=MASS_1124
1124
*MASS, ELSET=MASS_1124
0.0104930783
*ELSET, ELSET=MASS_1125
1125
*MASS, ELSET=MASS_1125
0.0157396174
*ELSET, ELSET=MASS_1126
1126
*MASS, ELSET=MASS_1126
0.0131721621
*ELSET, ELSET=MASS_1127
1127
*MASS, ELSET=MASS_1127
0.00267908381
*ELSET, ELSET=MASS_1128
1128
*MASS, ELSET=MASS_1128
0.00267908381
*ELSET, ELSET=MASS_1129
1129
*MASS, ELSET=MASS_1129
0.0131721621
*ELSET, ELSET=MASS_1130
1130
*MASS, ELSET=MASS_1130
0.0157396174
*ELSET, ELSET=MASS_1131
1131
*MASS, ELSET=MASS_1131
0.0104930783
*ELSET, ELSET=MASS_1132
1132
*MASS, ELSET=MASS_1132
0.0157396174
*ELSET, ELSET=MASS_1133
1133
*MASS, ELSET=MASS_1133
0.0131721621
*ELSET, ELSET=MASS_1134
1134
*MASS, ELSET=MASS_1134
0.00267908381
*ELSET, ELSET=MASS_1135
1135
*MASS, ELSET=MASS_1135
0.00267908381
*ELSET, ELSET=MASS_1136
1136
*MASS, ELSET=MASS_1136
0.0131721621
*ELSET, ELSET=MASS_1137
1137
*MASS, ELSET=MASS_1137
0.0157396174
*ELSET, ELSET=MASS_1138
1138
*MASS, ELSET=MASS_1138
0.0104930783
*ELSET, ELSET=MASS_1139
1139
*MASS, ELSET=MASS_1139
0.0157396174
*ELSET, ELSET=MASS_1140
1140
*MASS, ELSET=MASS_1140
0.0131721621
*ELSET, ELSET=MASS_1141
1141
*MASS, ELSET=MASS_1141
0.00267908381
*ELSET, ELSET=MASS_1142
1142
*MASS, ELSET=MASS_1142
0.00267908381
*ELSET, ELSET=MASS_1143
1143
*MASS, ELSET=MASS_1143
0.0131721621
*ELSET, ELSET=MASS_1144
1144
*MASS, ELSET=MASS_1144
0.0157396174
*ELSET, ELSET=MASS_1145
1145
*MASS, ELSET=MASS_1145
0.0104930783
*ELSET, ELSET=MASS_1146
1146
*MASS, ELSET=MASS_1146
0.0157396174
*ELSET, ELSET=MASS_1147
1147
*MASS, ELSET=MASS_1147
0.0131721621
*ELSET, ELSET=MASS_1148
1148
*MASS, ELSET=MASS_1148
0.00267908381
*ELSET, ELSET=MASS_1149
1149
*MASS, ELSET=MASS_1149
0.00267908381
*ELSET, ELSET=MASS_1150
1150
*MASS, ELSET=MASS_1150
0.0131721621
*ELSET, ELSET=MASS_1151
1151
*MASS, ELSET=MASS_1151
0.0157396174
*ELSET, ELSET=MASS_1152
1152
*MASS, ELSET=MASS_1152
0.0104930783
*ELSET, ELSET=MASS_1153
1153
*MASS, ELSET=MASS_1153
0.0157396174
*ELSET, ELSET=MASS_1154
1154
*MASS, ELSET=MASS_1154
0.0131721621
*ELSET, ELSET=MASS_1155
1155
*MASS, ELSET=MASS_1155
0.00267908381
*ELSET, ELSET=MASS_1156
1156
*MASS, ELSET=MASS_1156
0.00267908381
*ELSET, ELSET=MASS_1157
1157
*MASS, ELSET=MASS_1157
0.0131721621
*ELSET, ELSET=MASS_1158
1158
*MASS, ELSET=MASS_1158
0.0157396174
*ELSET, ELSET=MASS_1159
1159
*MASS, ELSET=MASS_1159
0.0104930783
*ELSET, ELSET=MASS_1160
1160
*MASS, ELSET=MASS_1160
0.0157396174
*ELSET, ELSET=MASS_1161
1161
*MASS, ELSET=MASS_1161
0.0131721621
*ELSET, ELSET=MASS_1162
1162
*MASS, ELSET=MASS_1162
0.00267908381
*ELSET, ELSET=MASS_1163
1163
*MASS, ELSET=MASS_1163
0.00267908381
*ELSET, ELSET=MASS_1164
1164
*MASS, ELSET=MASS_1164
0.0131721621
*ELSET, ELSET=MASS_1165
1165
*MASS, ELSET=MASS_1165
0.0157396174
*ELSET, ELSET=MASS_1166
1166
*MASS, ELSET=MASS_1166
0.0104930783
*ELSET, ELSET=MASS_1167
1167
*MASS, ELSET=MASS_1167
0.0157396174
*ELSET, ELSET=MASS_1168
1168
*MASS, ELSET=MASS_1168
0.0131721621
*ELSET, ELSET=MASS_1169
1169
*MASS, ELSET=MASS_1169
0.00267908381
*ELSET, ELSET=MASS_1170
1170
*MASS, ELSET=MASS_1170
0.00267908381
*ELSET, ELSET=MASS_1171
1171
*MASS, ELSET=MASS_1171
0.0131721621
*ELSET, ELSET=MASS_1172
1172
*MASS, ELSET=MASS_1172
0.0157396174
*ELSET, ELSET=MASS_1173
1173
*MASS, ELSET=MASS_1173
0.0104930783
*ELSET, ELSET=MASS_1174
1174
*MASS, ELSET=MASS_1174
0.0157396174
*ELSET, ELSET=MASS_1175
1175
*MASS, ELSET=MASS_1175
0.0131721621
*ELSET, ELSET=MASS_1176
1176
*MASS, ELSET=MASS_1176
0.00267908381
*ELSET, ELSET=MASS_1177
1177
*MASS, ELSET=MASS_1177
0.00267908381
*ELSET, ELSET=MASS_1178
1178
*MASS, ELSET=MASS_1178
0.0131721621
*ELSET, ELSET=MASS_1179
1179
*MASS, ELSET=MASS_1179
0.0157396174
*ELSET, ELSET=MASS_1180
1180
*MASS, ELSET=MASS_1180
0.0104930783
*ELSET, ELSET=MASS_1181
1181
*MASS, ELSET=MASS_1181
0.0157396174
*ELSET, ELSET=MASS_1182
1182
*MASS, ELSET=MASS_1182
0.0131721621
*ELSET, ELSET=MASS_1183
1183
*MASS, ELSET=MASS_1183
0.00267908381
*ELSET, ELSET=MASS_1184
1184
*MASS, ELSET=MASS_1184
0.00267908381
*ELSET, ELSET=MASS_1185
1185
*MASS, ELSET=MASS_1185
0.0131721621
*ELSET, ELSET=MASS_1186
1186
*MASS, ELSET=MASS_1186
0.0157396174
*ELSET, ELSET=MASS_1187
1187
*MASS, ELSET=MASS_1187
0.0104930783
*ELSET, ELSET=MASS_1188
1188
*MASS, ELSET=MASS_1188
0.0157396174
*ELSET, ELSET=MASS_1189
1189
*MASS, ELSET=MASS_1189
0.0131721621
*ELSET, ELSET=MASS_1190
1190
*MASS, ELSET=MASS_1190
0.00267908381
*ELSET, ELSET=MASS_1191
1191
*MASS, ELSET=MASS_1191
0.00267908381
*ELSET, ELSET=MASS_1192
1192
*MASS, ELSET=MASS_1192
0.0131721621
*ELSET, ELSET=MASS_1193
1193
*MASS, ELSET=MASS_1193
0.0157396174
*ELSET, ELSET=MASS_1194
1194
*MASS, ELSET=MASS_1194
0.0104930783
*ELSET, ELSET=MASS_1195
1195
*MASS, ELSET=MASS_1195
0.0157396174
*ELSET, ELSET=MASS_1196
1196
*MASS, ELSET=MASS_1196
0.0131721621
*ELSET, ELSET=MASS_1197
1197
*MASS, ELSET=MASS_1197
0.00267908381
*ELSET, ELSET=MASS_1198
1198
*MASS, ELSET=MASS_1198
0.00267908381
*ELSET, ELSET=MASS_1199
1199
*MASS, ELSET=MASS_1199
0.0131721621
*ELSET, ELSET=MASS_1200
1200
*MASS, ELSET=MASS_1200
0.0157396174
*ELSET, ELSET=MASS_1201
1201
*MASS, ELSET=MASS_1201
0.0104930783
*ELSET, ELSET=MASS_1202
1202
*MASS, ELSET=MASS_1202
0.0157396174
*ELSET, ELSET=MASS_1203
1203
*MASS, ELSET=MASS_1203
0.0131721621
*ELSET, ELSET=MASS_1204
1204
*MASS, ELSET=MASS_1204
0.00267908381
*ELSET, ELSET=MASS_1205
1205
*MASS, ELSET=MASS_1205
0.00267908381
*ELSET, ELSET=MASS_1206
1206
*MASS, ELSET=MASS_1206
0.0131721621
*ELSET, ELSET=MASS_1207
1207
*MASS, ELSET=MASS_1207
0.0157396174
*ELSET, ELSET=MASS_1208
1208
*MASS, ELSET=MASS_1208
0.0104930783
*ELSET, ELSET=MASS_1209
1209
*MASS, ELSET=MASS_1209
0.0157396174
*ELSET, ELSET=MASS_1210
1210
*MASS, ELSET=MASS_1210
0.0131721621
*ELSET, ELSET=MASS_1211
1211
*MASS, ELSET=MASS_1211
0.00267908381
*ELSET, ELSET=MASS_1212
1212
*MASS, ELSET=MASS_1212
0.00267908381
*ELSET, ELSET=MASS_1213
1213
*MASS, ELSET=MASS_1213
0.0131721621
*ELSET, ELSET=MASS_1214
1214
*MASS, ELSET=MASS_1214
0.0157396174
*ELSET, ELSET=MASS_1215
1215
*MASS, ELSET=MASS_1215
0.0104930783
*ELSET, ELSET=MASS_1216
1216
*MASS, ELSET=MASS_1216
0.0157396174
*ELSET, ELSET=MASS_1217
1217
*MASS, ELSET=MASS_1217
0.0131721621
*ELSET, ELSET=MASS_1218
1218
*MASS, ELSET=MASS_1218
0.00267908381
*ELSET, ELSET=MASS_1219
1219
*MASS, ELSET=MASS_1219
0.00267908381
*ELSET, ELSET=MASS_1220
1220
*MASS, ELSET=MASS_1220
0.0131721621
*ELSET, ELSET=MASS_1221
1221
*MASS, ELSET=MASS_1221
0.0157396174
*ELSET, ELSET=MASS_1222
1222
*MASS, ELSET=MASS_1222
0.0104930783
*ELSET, ELSET=MASS_1223
1223
*MASS, ELSET=MASS_1223
0.0157396174
*ELSET, ELSET=MASS_1224
1224
*MASS, ELSET=MASS_1224
0.0131721621
*ELSET, ELSET=MASS_1225
1225
*MASS, ELSET=MASS_1225
0.00267908381
*ELSET, ELSET=MASS_1226
1226
*MASS, ELSET=MASS_1226
0.00267908381
*ELSET, ELSET=MASS_1227
1227
*MASS, ELSET=MASS_1227
0.0131721621
*ELSET, ELSET=MASS_1228
1228
*MASS, ELSET=MASS_1228
0.0157396174
*ELSET, ELSET=MASS_1229
1229
*MASS, ELSET=MASS_1229
0.0104930783
*ELSET, ELSET=MASS_1230
1230
*MASS, ELSET=MASS_1230
0.0157396174
*ELSET, ELSET=MASS_1231
1231
*MASS, ELSET=MASS_1231
0.0131721621
*ELSET, ELSET=MASS_1232
1232
*MASS, ELSET=MASS_1232
0.00267908381
*ELSET, ELSET=MASS_1233
1233
*MASS, ELSET=MASS_1233
0.00267908381
*ELSET, ELSET=MASS_1234
1234
*MASS, ELSET=MASS_1234
0.0131721621
*ELSET, ELSET=MASS_1235
1235
*MASS, ELSET=MASS_1235
0.0157396174
*ELSET, ELSET=MASS_1236
1236
*MASS, ELSET=MASS_1236
0.0104930783
*ELSET, ELSET=MASS_1237
1237
*MASS, ELSET=MASS_1237
0.0157396174
*ELSET, ELSET=MASS_1238
1238
*MASS, ELSET=MASS_1238
0.0131721621
*ELSET, ELSET=MASS_1239
1239
*MASS, ELSET=MASS_1239
0.00267908381
*ELSET, ELSET=MASS_1240
1240
*MASS, ELSET=MASS_1240
0.00267908381
*ELSET, ELSET=MASS_1241
1241
*MASS, ELSET=MASS_1241
0.0131721621
*ELSET, ELSET=MASS_1242
1242
*MASS, ELSET=MASS_1242
0.0157396174
*ELSET, ELSET=MASS_1243
1243
*MASS, ELSET=MASS_1243
0.0104930783
*ELSET, ELSET=MASS_1244
1244
*MASS, ELSET=MASS_1244
0.0157396174
*ELSET, ELSET=MASS_1245
1245
*MASS, ELSET=MASS_1245
0.0131721621
*ELSET, ELSET=MASS_1246
1246
*MASS, ELSET=MASS_1246
0.00267908381
*ELSET, ELSET=MASS_1247
1247
*MASS, ELSET=MASS_1247
0.00267908381
*ELSET, ELSET=MASS_1248
1248
*MASS, ELSET=MASS_1248
0.0131721621
*ELSET, ELSET=MASS_1249
1249
*MASS, ELSET=MASS_1249
0.0157396174
*ELSET, ELSET=MASS_1250
1250
*MASS, ELSET=MASS_1250
0.0104930783
*ELSET, ELSET=MASS_1251
1251
*MASS, ELSET=MASS_1251
0.0157396174
*ELSET, ELSET=MASS_1252
1252
*MASS, ELSET=MASS_1252
0.0131721621
*ELSET, ELSET=MASS_1253
1253
*MASS, ELSET=MASS_1253
0.00267908381
*ELSET, ELSET=MASS_1254
1254
*MASS, ELSET=MASS_1254
0.00267908381
*ELSET, ELSET=MASS_1255
1255
*MASS, ELSET=MASS_1255
0.0131721621
*ELSET, ELSET=MASS_1256
1256
*MASS, ELSET=MASS_1256
0.0157396174
*ELSET, ELSET=MASS_1257
1257
*MASS, ELSET=MASS_1257
0.0104930783
*ELSET, ELSET=MASS_1258
1258
*MASS, ELSET=MASS_1258
0.0157396174
*ELSET, ELSET=MASS_1259
1259
*MASS, ELSET=MASS_1259
0.0131721621
*ELSET, ELSET=MASS_1260
1260
*MASS, ELSET=MASS_1260
0.00267908381
*ELSET, ELSET=MASS_1261
1261
*MASS, ELSET=MASS_1261
0.00267908381
*ELSET, ELSET=MASS_1262
1262
*MASS, ELSET=MASS_1262
0.0131721621
*ELSET, ELSET=MASS_1263
1263
*MASS, ELSET=MASS_1263
0.0157396174
*ELSET, ELSET=MASS_1264
1264
*MASS, ELSET=MASS_1264
0.0104930783
*ELSET, ELSET=MASS_1265
1265
*MASS, ELSET=MASS_1265
0.0157396174
*ELSET, ELSET=MASS_1266
1266
*MASS, ELSET=MASS_1266
0.0131721621
*ELSET, ELSET=MASS_1267
1267
*MASS, ELSET=MASS_1267
0.00267908381
*ELSET, ELSET=MASS_1268
1268
*MASS, ELSET=MASS_1268
0.00267908381
*ELSET, ELSET=MASS_1269
1269
*MASS, ELSET=MASS_1269
0.0131721621
*ELSET, ELSET=MASS_1270
1270
*MASS, ELSET=MASS_1270
0.0157396174
*ELSET, ELSET=MASS_1271
1271
*MASS, ELSET=MASS_1271
0.0104930783
*ELSET, ELSET=MASS_1272
1272
*MASS, ELSET=MASS_1272
0.0157396174
*ELSET, ELSET=MASS_1273
1273
*MASS, ELSET=MASS_1273
0.0131721621
*ELSET, ELSET=MASS_1274
1274
*MASS, ELSET=MASS_1274
0.00267908381
*ELSET, ELSET=MASS_1275
1275
*MASS, ELSET=MASS_1275
0.00267908381
*ELSET, ELSET=MASS_1276
1276
*MASS, ELSET=MASS_1276
0.0131721621
*ELSET, ELSET=MASS_1277
1277
*MASS, ELSET=MASS_1277
0.0157396174
*ELSET, ELSET=MASS_1278
1278
*MASS, ELSET=MASS_1278
0.0104930783
*ELSET, ELSET=MASS_1279
1279
*MASS, ELSET=MASS_1279
0.0157396174
*ELSET, ELSET=MASS_1280
1280
*MASS, ELSET=MASS_1280
0.0131721621
*ELSET, ELSET=MASS_1281
1281
*MASS, ELSET=MASS_1281
0.00267908381
*ELSET, ELSET=MASS_1282
1282
*MASS, ELSET=MASS_1282
0.00267908381
*ELSET, ELSET=MASS_1283
1283
*MASS, ELSET=MASS_1283
0.0131721621
*ELSET, ELSET=MASS_1284
1284
*MASS, ELSET=MASS_1284
0.0157396174
*ELSET, ELSET=MASS_1285
1285
*MASS, ELSET=MASS_1285
0.0104930783
*ELSET, ELSET=MASS_1286
1286
*MASS, ELSET=MASS_1286
0.0157396174
*ELSET, ELSET=MASS_1287
1287
*MASS, ELSET=MASS_1287
0.0131721621
*ELSET, ELSET=MASS_1288
1288
*MASS, ELSET=MASS_1288
0.00267908381
*ELSET, ELSET=MASS_1289
1289
*MASS, ELSET=MASS_1289
0.00267908381
*ELSET, ELSET=MASS_1290
1290
*MASS, ELSET=MASS_1290
0.0131721621
*ELSET, ELSET=MASS_1291
1291
*MASS, ELSET=MASS_1291
0.0157396174
*ELSET, ELSET=MASS_1292
1292
*MASS, ELSET=MASS_1292
0.0104930783
*ELSET, ELSET=MASS_1293
1293
*MASS, ELSET=MASS_1293
0.0157396174
*ELSET, ELSET=MASS_1294
1294
*MASS, ELSET=MASS_1294
0.0131721621
*ELSET, ELSET=MASS_1295
1295
*MASS, ELSET=MASS_1295
0.00267908381
*ELSET, ELSET=MASS_1296
1296
*MASS, ELSET=MASS_1296
0.00267908381
*ELSET, ELSET=MASS_1297
1297
*MASS, ELSET=MASS_1297
0.0131721621
*ELSET, ELSET=MASS_1298
1298
*MASS, ELSET=MASS_1298
0.0157396174
*ELSET, ELSET=MASS_1299
1299
*MASS, ELSET=MASS_1299
0.0104930783
*ELSET, ELSET=MASS_1300
1300
*MASS, ELSET=MASS_1300
0.0157396174
*ELSET, ELSET=MASS_1301
1301
*MASS, ELSET=MASS_1301
0.0131721621
*ELSET, ELSET=MASS_1302
1302
*MASS, ELSET=MASS_1302
0.00267908381
*ELSET, ELSET=MASS_1303
1303
*MASS, ELSET=MASS_1303
0.00267908381
*ELSET, ELSET=MASS_1304
1304
*MASS, ELSET=MASS_1304
0.0131721621
*ELSET, ELSET=MASS_1305
1305
*MASS, ELSET=MASS_1305
0.0157396174
*ELSET, ELSET=MASS_1306
1306
*MASS, ELSET=MASS_1306
0.0104930783
*ELSET, ELSET=MASS_1307
1307
*MASS, ELSET=MASS_1307
0.0157396174
*ELSET, ELSET=MASS_1308
1308
*MASS, ELSET=MASS_1308
0.0131721621
*ELSET, ELSET=MASS_1309
1309
*MASS, ELSET=MASS_1309
0.00267908381
*ELSET, ELSET=MASS_1310
1310
*MASS, ELSET=MASS_1310
0.00267908381
*ELSET, ELSET=MASS_1311
1311
*MASS, ELSET=MASS_1311
0.0131721621
*ELSET, ELSET=MASS_1312
1312
*MASS, ELSET=MASS_1312
0.0157396174
*ELSET, ELSET=MASS_1313
1313
*MASS, ELSET=MASS_1313
0.0104930783
*ELSET, ELSET=MASS_1314
1314
*MASS, ELSET=MASS_1314
0.0157396174
*ELSET, ELSET=MASS_1315
1315
*MASS, ELSET=MASS_1315
0.0131721621
*ELSET, ELSET=MASS_1316
1316
*MASS, ELSET=MASS_1316
0.00267908381
*ELSET, ELSET=MASS_1317
1317
*MASS, ELSET=MASS_1317
0.00267908381
*ELSET, ELSET=MASS_1318
1318
*MASS, ELSET=MASS_1318
0.0131721621
*ELSET, ELSET=MASS_1319
1319
*MASS, ELSET=MASS_1319
0.0157396174
*ELSET, ELSET=MASS_1320
1320
*MASS, ELSET=MASS_1320
0.0104930783
*ELSET, ELSET=MASS_1321
1321
*MASS, ELSET=MASS_1321
0.0157396174
*ELSET, ELSET=MASS_1322
1322
*MASS, ELSET=MASS_1322
0.0131721621
*ELSET, ELSET=MASS_1323
1323
*MASS, ELSET=MASS_1323
0.00267908381
*ELSET, ELSET=MASS_1324
1324
*MASS, ELSET=MASS_1324
0.00267908381
*ELSET, ELSET=MASS_1325
1325
*MASS, ELSET=MASS_1325
0.0131721621
*ELSET, ELSET=MASS_1326
1326
*MASS, ELSET=MASS_1326
0.0157396174
*ELSET, ELSET=MASS_1327
1327
*MASS, ELSET=MASS_1327
0.0104930783
*ELSET, ELSET=MASS_1328
1328
*MASS, ELSET=MASS_1328
0.0157396174
*ELSET, ELSET=MASS_1329
1329
*MASS, ELSET=MASS_1329
0.0131721621
*ELSET, ELSET=MASS_1330
1330
*MASS, ELSET=MASS_1330
0.00267908381
*ELSET, ELSET=MASS_1331
1331
*MASS, ELSET=MASS_1331
0.00267908381
*ELSET, ELSET=MASS_1332
1332
*MASS, ELSET=MASS_1332
0.0131721621
*ELSET, ELSET=MASS_1333
1333
*MASS, ELSET=MASS_1333
0.0157396174
*ELSET, ELSET=MASS_1334
1334
*MASS, ELSET=MASS_1334
0.0104930783
*ELSET, ELSET=MASS_1335
1335
*MASS, ELSET=MASS_1335
0.0157396174
*ELSET, ELSET=MASS_1336
1336
*MASS, ELSET=MASS_1336
0.0131721621
*ELSET, ELSET=MASS_1337
1337
*MASS, ELSET=MASS_1337
0.00267908381
*ELSET, ELSET=MASS_1338
1338
*MASS, ELSET=MASS_1338
0.00267908381
*ELSET, ELSET=MASS_1339
1339
*MASS, ELSET=MASS_1339
0.0131721621
*ELSET, ELSET=MASS_1340
1340
*MASS, ELSET=MASS_1340
0.0157396174
*ELSET, ELSET=MASS_1341
1341
*MASS, ELSET=MASS_1341
0.0104930783
*ELSET, ELSET=MASS_1342
1342
*MASS, ELSET=MASS_1342
0.0157396174
*ELSET, ELSET=MASS_1343
1343
*MASS, ELSET=MASS_1343
0.0131721621
*ELSET, ELSET=MASS_1344
1344
*MASS, ELSET=MASS_1344
0.00267908381
*ELSET, ELSET=MASS_1345
1345
*MASS, ELSET=MASS_1345
0.00267908381
*ELSET, ELSET=MASS_1346
1346
*MASS, ELSET=MASS_1346
0.0131721621
*ELSET, ELSET=MASS_1347
1347
*MASS, ELSET=MASS_1347
0.0157396174
*ELSET, ELSET=MASS_1348
1348
*MASS, ELSET=MASS_1348
0.0104930783
*ELSET, ELSET=MASS_1349
1349
*MASS, ELSET=MASS_1349
0.0157396174
*ELSET, ELSET=MASS_1350
1350
*MASS, ELSET=MASS_1350
0.0131721621
*ELSET, ELSET=MASS_1351
1351
*MASS, ELSET=MASS_1351
0.00267908381
*ELSET, ELSET=MASS_1352
1352
*MASS, ELSET=MASS_1352
0.00267908381
*ELSET, ELSET=MASS_1353
1353
*MASS, ELSET=MASS_1353
0.0131721621
*ELSET, ELSET=MASS_1354
1354
*MASS, ELSET=MASS_1354
0.0157396174
*ELSET, ELSET=MASS_1355
1355
*MASS, ELSET=MASS_1355
0.0104930783
*ELSET, ELSET=MASS_1356
1356
*MASS, ELSET=MASS_1356
0.0157396174
*ELSET, ELSET=MASS_1357
1357
*MASS, ELSET=MASS_1357
0.0131721621
*ELSET, ELSET=MASS_1358
1358
*MASS, ELSET=MASS_1358
0.00267908381
*ELSET, ELSET=MASS_1359
1359
*MASS, ELSET=MASS_1359
0.00267908381
*ELSET, ELSET=MASS_1360
1360
*MASS, ELSET=MASS_1360
0.0131721621
*ELSET, ELSET=MASS_1361
1361
*MASS, ELSET=MASS_1361
0.0157396174
*ELSET, ELSET=MASS_1362
1362
*MASS, ELSET=MASS_1362
0.0104930783
*ELSET, ELSET=MASS_1363
1363
*MASS, ELSET=MASS_1363
0.0157396174
*ELSET, ELSET=MASS_1364
1364
*MASS, ELSET=MASS_1364
0.0131721621
*ELSET, ELSET=MASS_1365
1365
*MASS, ELSET=MASS_1365
0.00267908381
*ELSET, ELSET=MASS_1366
1366
*MASS, ELSET=MASS_1366
0.00267908381
*ELSET, ELSET=MASS_1367
1367
*MASS, ELSET=MASS_1367
0.0131721621
*ELSET, ELSET=MASS_1368
1368
*MASS, ELSET=MASS_1368
0.0157396174
*ELSET, ELSET=MASS_1369
1369
*MASS, ELSET=MASS_1369
0.0104930783
*ELSET, ELSET=MASS_1370
1370
*MASS, ELSET=MASS_1370
0.0157396174
*ELSET, ELSET=MASS_1371
1371
*MASS, ELSET=MASS_1371
0.0131721621
*ELSET, ELSET=MASS_1372
1372
*MASS, ELSET=MASS_1372
0.00267908381
*ELSET, ELSET=MASS_1373
1373
*MASS, ELSET=MASS_1373
0.00267908381
*ELSET, ELSET=MASS_1374
1374
*MASS, ELSET=MASS_1374
0.0131721621
*ELSET, ELSET=MASS_1375
1375
*MASS, ELSET=MASS_1375
0.0157396174
*ELSET, ELSET=MASS_1376
1376
*MASS, ELSET=MASS_1376
0.0104930783
*ELSET, ELSET=MASS_1377
1377
*MASS, ELSET=MASS_1377
0.0157396174
*ELSET, ELSET=MASS_1378
1378
*MASS, ELSET=MASS_1378
0.0131721621
*ELSET, ELSET=MASS_1379
1379
*MASS, ELSET=MASS_1379
0.00267908381
*ELSET, ELSET=MASS_1380
1380
*MASS, ELSET=MASS_1380
0.00267908381
*ELSET, ELSET=MASS_1381
1381
*MASS, ELSET=MASS_1381
0.0131721621
*ELSET, ELSET=MASS_1382
1382
*MASS, ELSET=MASS_1382
0.0157396174
*ELSET, ELSET=MASS_1383
1383
*MASS, ELSET=MASS_1383
0.0104930783
*ELSET, ELSET=MASS_1384
1384
*MASS, ELSET=MASS_1384
0.0157396174
*ELSET, ELSET=MASS_1385
1385
*MASS, ELSET=MASS_1385
0.0131721621
*ELSET, ELSET=MASS_1386
1386
*MASS, ELSET=MASS_1386
0.00267908381
*ELSET, ELSET=MASS_1387
1387
*MASS, ELSET=MASS_1387
0.00267908381
*ELSET, ELSET=MASS_1388
1388
*MASS, ELSET=MASS_1388
0.0131721621
*ELSET, ELSET=MASS_1389
1389
*MASS, ELSET=MASS_1389
0.0157396174
*ELSET, ELSET=MASS_1390
1390
*MASS, ELSET=MASS_1390
0.0104930783
*ELSET, ELSET=MASS_1391
1391
*MASS, ELSET=MASS_1391
0.0157396174
*ELSET, ELSET=MASS_1392
1392
*MASS, ELSET=MASS_1392
0.0131721621
*ELSET, ELSET=MASS_1393
1393
*MASS, ELSET=MASS_1393
0.00267908381
*ELSET, ELSET=MASS_1394
1394
*MASS, ELSET=MASS_1394
0.00267908381
*ELSET, ELSET=MASS_1395
1395
*MASS, ELSET=MASS_1395
0.0131721621
*ELSET, ELSET=MASS_1396
1396
*MASS, ELSET=MASS_1396
0.0157396174
*ELSET, ELSET=MASS_1397
1397
*MASS, ELSET=MASS_1397
0.0104930783
*ELSET, ELSET=MASS_1398
1398
*MASS, ELSET=MASS_1398
0.0157396174
*ELSET, ELSET=MASS_1399
1399
*MASS, ELSET=MASS_1399
0.0131721621
*ELSET, ELSET=MASS_1400
1400
*MASS, ELSET=MASS_1400
0.00267908381
*ELSET, ELSET=MASS_1401
1401
*MASS, ELSET=MASS_1401
0.00267908381
*ELSET, ELSET=MASS_1402
1402
*MASS, ELSET=MASS_1402
0.0131721621
*ELSET, ELSET=MASS_1403
1403
*MASS, ELSET=MASS_1403
0.0157396174
*ELSET, ELSET=MASS_1404
1404
*MASS, ELSET=MASS_1404
0.0104930783
*ELSET, ELSET=MASS_1405
1405
*MASS, ELSET=MASS_1405
0.0157396174
*ELSET, ELSET=MASS_1406
1406
*MASS, ELSET=MASS_1406
0.0131721621
*ELSET, ELSET=MASS_1407
1407
*MASS, ELSET=MASS_1407
0.00267908381
*ELSET, ELSET=MASS_1408
1408
*MASS, ELSET=MASS_1408
0.00267908381
*ELSET, ELSET=MASS_1409
1409
*MASS, ELSET=MASS_1409
0.0131721621
*ELSET, ELSET=MASS_1410
1410
*MASS, ELSET=MASS_1410
0.0157396174
*ELSET, ELSET=MASS_1411
1411
*MASS, ELSET=MASS_1411
0.0104930783
*ELSET, ELSET=MASS_1412
1412
*MASS, ELSET=MASS_1412
0.0157396174
*ELSET, ELSET=MASS_1413
1413
*MASS, ELSET=MASS_1413
0.0131721621
*ELSET, ELSET=MASS_1414
1414
*MASS, ELSET=MASS_1414
0.00267908381
*ELSET, ELSET=MASS_1415
1415
*MASS, ELSET=MASS_1415
0.00267908381
*ELSET, ELSET=MASS_1416
1416
*MASS, ELSET=MASS_1416
0.0131721621
*ELSET, ELSET=MASS_1417
1417
*MASS, ELSET=MASS_1417
0.0157396174
*ELSET, ELSET=MASS_1418
1418
*MASS, ELSET=MASS_1418
0.0104930783
*ELSET, ELSET=MASS_1419
1419
*MASS, ELSET=MASS_1419
0.0157396174
*ELSET, ELSET=MASS_1420
1420
*MASS, ELSET=MASS_1420
0.0131721621
*ELSET, ELSET=MASS_1421
1421
*MASS, ELSET=MASS_1421
0.00267908381
*ELSET, ELSET=MASS_1422
1422
*MASS, ELSET=MASS_1422
0.00267908381
*ELSET, ELSET=MASS_1423
1423
*MASS, ELSET=MASS_1423
0.0131721621
*ELSET, ELSET=MASS_1424
1424
*MASS, ELSET=MASS_1424
0.0157396174
*ELSET, ELSET=MASS_1425
1425
*MASS, ELSET=MASS_1425
0.0104930783
*ELSET, ELSET=MASS_1426
1426
*MASS, ELSET=MASS_1426
0.0157396174
*ELSET, ELSET=MASS_1427
1427
*MASS, ELSET=MASS_1427
0.0131721621
*ELSET, ELSET=MASS_1428
1428
*MASS, ELSET=MASS_1428
0.00267908381
*ELSET, ELSET=MASS_1429
1429
*MASS, ELSET=MASS_1429
0.00267908381
*ELSET, ELSET=MASS_1430
1430
*MASS, ELSET=MASS_1430
0.0131721621
*ELSET, ELSET=MASS_1431
1431
*MASS, ELSET=MASS_1431
0.0157396174
*ELSET, ELSET=MASS_1432
1432
*MASS, ELSET=MASS_1432
0.0104930783
*ELSET, ELSET=MASS_1433
1433
*MASS, ELSET=MASS_1433
0.0157396174
*ELSET, ELSET=MASS_1434
1434
*MASS, ELSET=MASS_1434
0.0131721621
*ELSET, ELSET=MASS_1435
1435
*MASS, ELSET=MASS_1435
0.00267908381
*ELSET, ELSET=MASS_1436
1436
*MASS, ELSET=MASS_1436
0.00267908381
*ELSET, ELSET=MASS_1437
1437
*MASS, ELSET=MASS_1437
0.0131721621
*ELSET, ELSET=MASS_1438
1438
*MASS, ELSET=MASS_1438
0.0157396174
*ELSET, ELSET=MASS_1439
1439
*MASS, ELSET=MASS_1439
0.0104930783
*ELSET, ELSET=MASS_1440
1440
*MASS, ELSET=MASS_1440
0.0157396174
*ELSET, ELSET=MASS_1441
1441
*MASS, ELSET=MASS_1441
0.0131721621
*ELSET, ELSET=MASS_1442
1442
*MASS, ELSET=MASS_1442
0.00267908381
*ELSET, ELSET=MASS_1443
1443
*MASS, ELSET=MASS_1443
0.00267908381
*ELSET, ELSET=MASS_1444
1444
*MASS, ELSET=MASS_1444
0.0131721621
*ELSET, ELSET=MASS_1445
1445
*MASS, ELSET=MASS_1445
0.0157396174
*ELSET, ELSET=MASS_1446
1446
*MASS, ELSET=MASS_1446
0.0104930783
*ELSET, ELSET=MASS_1447
1447
*MASS, ELSET=MASS_1447
0.0157396174
*ELSET, ELSET=MASS_1448
1448
*MASS, ELSET=MASS_1448
0.0131721621
*ELSET, ELSET=MASS_1449
1449
*MASS, ELSET=MASS_1449
0.00267908381
*ELSET, ELSET=MASS_1450
1450
*MASS, ELSET=MASS_1450
0.00267908381
*ELSET, ELSET=MASS_1451
1451
*MASS, ELSET=MASS_1451
0.0131721621
*ELSET, ELSET=MASS_1452
1452
*MASS, ELSET=MASS_1452
0.0157396174
*ELSET, ELSET=MASS_1453
1453
*MASS, ELSET=MASS_1453
0.0104930783
*ELSET, ELSET=MASS_1454
1454
*MASS, ELSET=MASS_1454
0.0157396174
*ELSET, ELSET=MASS_1455
1455
*MASS, ELSET=MASS_1455
0.0131721621
*ELSET, ELSET=MASS_1456
1456
*MASS, ELSET=MASS_1456
0.00267908381
*ELSET, ELSET=MASS_1457
1457
*MASS, ELSET=MASS_1457
0.00267908381
*ELSET, ELSET=MASS_1458
1458
*MASS, ELSET=MASS_1458
0.0131721621
*ELSET, ELSET=MASS_1459
1459
*MASS, ELSET=MASS_1459
0.0157396174
*ELSET, ELSET=MASS_1460
1460
*MASS, ELSET=MASS_1460
0.0104930783
*ELSET, ELSET=MASS_1461
1461
*MASS, ELSET=MASS_1461
0.0157396174
*ELSET, ELSET=MASS_1462
1462
*MASS, ELSET=MASS_1462
0.0131721621
*ELSET, ELSET=MASS_1463
1463
*MASS, ELSET=MASS_1463
0.00267908381
*ELSET, ELSET=MASS_1464
1464
*MASS, ELSET=MASS_1464
0.00267908381
*ELSET, ELSET=MASS_1465
1465
*MASS, ELSET=MASS_1465
0.0131721621
*ELSET, ELSET=MASS_1466
1466
*MASS, ELSET=MASS_1466
0.0157396174
*ELSET, ELSET=MASS_1467
1467
*MASS, ELSET=MASS_1467
0.0104930783
*ELSET, ELSET=MASS_1468
1468
*MASS, ELSET=MASS_1468
0.0157396174
*ELSET, ELSET=MASS_1469
1469
*MASS, ELSET=MASS_1469
0.0131721621
*ELSET, ELSET=MASS_1470
1470
*MASS, ELSET=MASS_1470
0.00267908381
*ELSET, ELSET=MASS_1471
1471
*MASS, ELSET=MASS_1471
0.00267908381
*ELSET, ELSET=MASS_1472
1472
*MASS, ELSET=MASS_1472
0.0131721621
*ELSET, ELSET=MASS_1473
1473
*MASS, ELSET=MASS_1473
0.0157396174
*ELSET, ELSET=MASS_1474
1474
*MASS, ELSET=MASS_1474
0.0104930783
*ELSET, ELSET=MASS_1475
1475
*MASS, ELSET=MASS_1475
0.0157396174
*ELSET, ELSET=MASS_1476
1476
*MASS, ELSET=MASS_1476
0.0131721621
*ELSET, ELSET=MASS_1477
1477
*MASS, ELSET=MASS_1477
0.00267908381
*ELSET, ELSET=MASS_1478
1478
*MASS, ELSET=MASS_1478
0.00267908381
*ELSET, ELSET=MASS_1479
1479
*MASS, ELSET=MASS_1479
0.0131721621
*ELSET, ELSET=MASS_1480
1480
*MASS, ELSET=MASS_1480
0.0157396174
*ELSET, ELSET=MASS_1481
1481
*MASS, ELSET=MASS_1481
0.0104930783
*ELSET, ELSET=MASS_1482
1482
*MASS, ELSET=MASS_1482
0.0157396174
*ELSET, ELSET=MASS_1483
1483
*MASS, ELSET=MASS_1483
0.0131721621
*ELSET, ELSET=MASS_1484
1484
*MASS, ELSET=MASS_1484
0.00267908381
*ELSET, ELSET=MASS_1485
1485
*MASS, ELSET=MASS_1485
0.00267908381
*ELSET, ELSET=MASS_1486
1486
*MASS, ELSET=MASS_1486
0.0131721621
*ELSET, ELSET=MASS_1487
1487
*MASS, ELSET=MASS_1487
0.0157396174
*ELSET, ELSET=MASS_1488
1488
*MASS, ELSET=MASS_1488
0.0104930783
*ELSET, ELSET=MASS_1489
1489
*MASS, ELSET=MASS_1489
0.0157396174
*ELSET, ELSET=MASS_1490
1490
*MASS, ELSET=MASS_1490
0.0131721621
*ELSET, ELSET=MASS_1491
1491
*MASS, ELSET=MASS_1491
0.00267908381
*ELSET, ELSET=MASS_1492
1492
*MASS, ELSET=MASS_1492
0.00267908381
*ELSET, ELSET=MASS_1493
1493
*MASS, ELSET=MASS_1493
0.0131721621
*ELSET, ELSET=MASS_1494
1494
*MASS, ELSET=MASS_1494
0.0157396174
*ELSET, ELSET=MASS_1495
1495
*MASS, ELSET=MASS_1495
0.0104930783
*ELSET, ELSET=MASS_1496
1496
*MASS, ELSET=MASS_1496
0.0157396174
*ELSET, ELSET=MASS_1497
1497
*MASS, ELSET=MASS_1497
0.0131721621
*ELSET, ELSET=MASS_1498
1498
*MASS, ELSET=MASS_1498
0.00267908381
*ELSET, ELSET=MASS_1499
1499
*MASS, ELSET=MASS_1499
0.00267908381
*ELSET, ELSET=MASS_1500
1500
*MASS, ELSET=MASS_1500
0.0131721621
*ELSET, ELSET=MASS_1501
1501
*MASS, ELSET=MASS_1501
0.0157396174
*ELSET, ELSET=MASS_1502
1502
*MASS, ELSET=MASS_1502
0.0104930783
*ELSET, ELSET=MASS_1503
1503
*MASS, ELSET=MASS_1503
0.0157396174
*ELSET, ELSET=MASS_1504
1504
*MASS, ELSET=MASS_1504
0.0131721621
*ELSET, ELSET=MASS_1505
1505
*MASS, ELSET=MASS_1505
0.00267908381
*ELSET, ELSET=MASS_1506
1506
*MASS, ELSET=MASS_1506
0.00267908381
*ELSET, ELSET=MASS_1507
1507
*MASS, ELSET=MASS_1507
0.0131721621
*ELSET, ELSET=MASS_1508
1508
*MASS, ELSET=MASS_1508
0.0157396174
*ELSET, ELSET=MASS_1509
1509
*MASS, ELSET=MASS_1509
0.0104930783
*ELSET, ELSET=MASS_1510
1510
*MASS, ELSET=MASS_1510
0.0157396174
*ELSET, ELSET=MASS_1511
1511
*MASS, ELSET=MASS_1511
0.0131721621
*ELSET, ELSET=MASS_1512
1512
*MASS, ELSET=MASS_1512
0.00267908381
*ELSET, ELSET=MASS_1513
1513
*MASS, ELSET=MASS_1513
0.00267908381
*ELSET, ELSET=MASS_1514
1514
*MASS, ELSET=MASS_1514
0.0131721621
*ELSET, ELSET=MASS_1515
1515
*MASS, ELSET=MASS_1515
0.0157396174
*ELSET, ELSET=MASS_1516
1516
*MASS, ELSET=MASS_1516
0.0104930783
*ELSET, ELSET=MASS_1517
1517
*MASS, ELSET=MASS_1517
0.0157396174
*ELSET, ELSET=MASS_1518
1518
*MASS, ELSET=MASS_1518
0.0131721621
*ELSET, ELSET=MASS_1519
1519
*MASS, ELSET=MASS_1519
0.00267908381
*ELSET, ELSET=MASS_1520
1520
*MASS, ELSET=MASS_1520
0.00267908381
*ELSET, ELSET=MASS_1521
1521
*MASS, ELSET=MASS_1521
0.0131721621
*ELSET, ELSET=MASS_1522
1522
*MASS, ELSET=MASS_1522
0.0157396174
*ELSET, ELSET=MASS_1523
1523
*MASS, ELSET=MASS_1523
0.0104930783
*ELSET, ELSET=MASS_1524
1524
*MASS, ELSET=MASS_1524
0.0157396174
*ELSET, ELSET=MASS_1525
1525
*MASS, ELSET=MASS_1525
0.0131721621
*ELSET, ELSET=MASS_1526
1526
*MASS, ELSET=MASS_1526
0.00267908381
*ELSET, ELSET=MASS_1527
1527
*MASS, ELSET=MASS_1527
0.00267908381
*ELSET, ELSET=MASS_1528
1528
*MASS, ELSET=MASS_1528
0.0131721621
*ELSET, ELSET=MASS_1529
1529
*MASS, ELSET=MASS_1529
0.0157396174
*ELSET, ELSET=MASS_1530
1530
*MASS, ELSET=MASS_1530
0.0104930783
*ELSET, ELSET=MASS_1531
1531
*MASS, ELSET=MASS_1531
0.0157396174
*ELSET, ELSET=MASS_1532
1532
*MASS, ELSET=MASS_1532
0.0131721621
*ELSET, ELSET=MASS_1533
1533
*MASS, ELSET=MASS_1533
0.00267908381
*ELSET, ELSET=MASS_1534
1534
*MASS, ELSET=MASS_1534
0.00267908381
*ELSET, ELSET=MASS_1535
1535
*MASS, ELSET=MASS_1535
0.0131721621
*ELSET, ELSET=MASS_1536
1536
*MASS, ELSET=MASS_1536
0.0157396174
*ELSET, ELSET=MASS_1537
1537
*MASS, ELSET=MASS_1537
0.0104930783
*ELSET, ELSET=MASS_1538
1538
*MASS, ELSET=MASS_1538
0.0157396174
*ELSET, ELSET=MASS_1539
1539
*MASS, ELSET=MASS_1539
0.0131721621
*ELSET, ELSET=MASS_1540
1540
*MASS, ELSET=MASS_1540
0.00267908381
*ELSET, ELSET=MASS_1541
1541
*MASS, ELSET=MASS_1541
0.00267908381
*ELSET, ELSET=MASS_1542
1542
*MASS, ELSET=MASS_1542
0.0131721621
*ELSET, ELSET=MASS_1543
1543
*MASS, ELSET=MASS_1543
0.0157396174
*ELSET, ELSET=MASS_1544
1544
*MASS, ELSET=MASS_1544
0.0104930783
*ELSET, ELSET=MASS_1545
1545
*MASS, ELSET=MASS_1545
0.0157396174
*ELSET, ELSET=MASS_1546
1546
*MASS, ELSET=MASS_1546
0.0131721621
*ELSET, ELSET=MASS_1547
1547
*MASS, ELSET=MASS_1547
0.00267908381
*ELSET, ELSET=MASS_1548
1548
*MASS, ELSET=MASS_1548
0.00267908381
*ELSET, ELSET=MASS_1549
1549
*MASS, ELSET=MASS_1549
0.0131721621
*ELSET, ELSET=MASS_1550
1550
*MASS, ELSET=MASS_1550
0.0157396174
*ELSET, ELSET=MASS_1551
1551
*MASS, ELSET=MASS_1551
0.0104930783
*ELSET, ELSET=MASS_1552
1552
*MASS, ELSET=MASS_1552
0.0157396174
*ELSET, ELSET=MASS_1553
1553
*MASS, ELSET=MASS_1553
0.0131721621
*ELSET, ELSET=MASS_1554
1554
*MASS, ELSET=MASS_1554
0.00267908381
*ELSET, ELSET=MASS_1555
1555
*MASS, ELSET=MASS_1555
0.00267908381
*ELSET, ELSET=MASS_1556
1556
*MASS, ELSET=MASS_1556
0.0131721621
*ELSET, ELSET=MASS_1557
1557
*MASS, ELSET=MASS_1557
0.0157396174
*ELSET, ELSET=MASS_1558
1558
*MASS, ELSET=MASS_1558
0.0104930783
*ELSET, ELSET=MASS_1559
1559
*MASS, ELSET=MASS_1559
0.0157396174
*ELSET, ELSET=MASS_1560
1560
*MASS, ELSET=MASS_1560
0.0131721621
*ELSET, ELSET=MASS_1561
1561
*MASS, ELSET=MASS_1561
0.00267908381
*ELSET, ELSET=MASS_1562
1562
*MASS, ELSET=MASS_1562
0.00267908381
*ELSET, ELSET=MASS_1563
1563
*MASS, ELSET=MASS_1563
0.0131721621
*ELSET, ELSET=MASS_1564
1564
*MASS, ELSET=MASS_1564
0.0157396174
*ELSET, ELSET=MASS_1565
1565
*MASS, ELSET=MASS_1565
0.0104930783
*ELSET, ELSET=MASS_1566
1566
*MASS, ELSET=MASS_1566
0.0157396174
*ELSET, ELSET=MASS_1567
1567
*MASS, ELSET=MASS_1567
0.0131721621
*ELSET, ELSET=MASS_1568
1568
*MASS, ELSET=MASS_1568
0.00267908381
*ELSET, ELSET=MASS_1569
1569
*MASS, ELSET=MASS_1569
0.00267908381
*ELSET, ELSET=MASS_1570
1570
*MASS, ELSET=MASS_1570
0.0131721621
*ELSET, ELSET=MASS_1571
1571
*MASS, ELSET=MASS_1571
0.0157396174
*ELSET, ELSET=MASS_1572
1572
*MASS, ELSET=MASS_1572
0.0104930783
*ELSET, ELSET=MASS_1573
1573
*MASS, ELSET=MASS_1573
0.0157396174
*ELSET, ELSET=MASS_1574
1574
*MASS, ELSET=MASS_1574
0.0131721621
*ELSET, ELSET=MASS_1575
1575
*MASS, ELSET=MASS_1575
0.00267908381
*ELSET, ELSET=MASS_1576
1576
*MASS, ELSET=MASS_1576
0.00267908381
*ELSET, ELSET=MASS_1577
1577
*MASS, ELSET=MASS_1577
0.0131721621
*ELSET, ELSET=MASS_1578
1578
*MASS, ELSET=MASS_1578
0.0157396174
*ELSET, ELSET=MASS_1579
1579
*MASS, ELSET=MASS_1579
0.0104930783
*ELSET, ELSET=MASS_1580
1580
*MASS, ELSET=MASS_1580
0.0157396174
*ELSET, ELSET=MASS_1581
1581
*MASS, ELSET=MASS_1581
0.0131721621
*ELSET, ELSET=MASS_1582
1582
*MASS, ELSET=MASS_1582
0.00267908381
*ELSET, ELSET=MASS_1583
1583
*MASS, ELSET=MASS_1583
0.00267908381
*ELSET, ELSET=MASS_1584
1584
*MASS, ELSET=MASS_1584
0.0131721621
*ELSET, ELSET=MASS_1585
1585
*MASS, ELSET=MASS_1585
0.0157396174
*ELSET, ELSET=MASS_1586
1586
*MASS, ELSET=MASS_1586
0.0104930783
*ELSET, ELSET=MASS_1587
1587
*MASS, ELSET=MASS_1587
0.0157396174
*ELSET, ELSET=MASS_1588
1588
*MASS, ELSET=MASS_1588
0.0131721621
*ELSET, ELSET=MASS_1589
1589
*MASS, ELSET=MASS_1589
0.00267908381
*ELSET, ELSET=MASS_1590
1590
*MASS, ELSET=MASS_1590
0.00267908381
*ELSET, ELSET=MASS_1591
1591
*MASS, ELSET=MASS_1591
0.0131721621
*ELSET, ELSET=MASS_1592
1592
*MASS, ELSET=MASS_1592
0.0157396174
*ELSET, ELSET=MASS_1593
1593
*MASS, ELSET=MASS_1593
0.0104930783
*ELSET, ELSET=MASS_1594
1594
*MASS, ELSET=MASS_1594
0.0157396174
*ELSET, ELSET=MASS_1595
1595
*MASS, ELSET=MASS_1595
0.0131721621
*ELSET, ELSET=MASS_1596
1596
*MASS, ELSET=MASS_1596
0.00267908381
*ELSET, ELSET=MASS_1597
1597
*MASS, ELSET=MASS_1597
0.00267908381
*ELSET, ELSET=MASS_1598
1598
*MASS, ELSET=MASS_1598
0.0131721621
*ELSET, ELSET=MASS_1599
1599
*MASS, ELSET=MASS_1599
0.0157396174
*ELSET, ELSET=MASS_1600
1600
*MASS, ELSET=MASS_1600
0.0104930783
*ELSET, ELSET=MASS_1601
1601
*MASS, ELSET=MASS_1601
0.0157396174
*ELSET, ELSET=MASS_1602
1602
*MASS, ELSET=MASS_1602
0.0131721621
*ELSET, ELSET=MASS_1603
1603
*MASS, ELSET=MASS_1603
0.00267908381
*ELSET, ELSET=MASS_1604
1604
*MASS, ELSET=MASS_1604
0.00267908381
*ELSET, ELSET=MASS_1605
1605
*MASS, ELSET=MASS_1605
0.0131721621
*ELSET, ELSET=MASS_1606
1606
*MASS, ELSET=MASS_1606
0.0157396174
*ELSET, ELSET=MASS_1607
1607
*MASS, ELSET=MASS_1607
0.0104930783
*ELSET, ELSET=MASS_1608
1608
*MASS, ELSET=MASS_1608
0.0157396174
*ELSET, ELSET=MASS_1609
1609
*MASS, ELSET=MASS_1609
0.0131721621
*ELSET, ELSET=MASS_1610
1610
*MASS, ELSET=MASS_1610
0.00267908381
*ELSET, ELSET=MASS_1611
1611
*MASS, ELSET=MASS_1611
0.00267908381
*ELSET, ELSET=MASS_1612
1612
*MASS, ELSET=MASS_1612
0.0131721621
*ELSET, ELSET=MASS_1613
1613
*MASS, ELSET=MASS_1613
0.0157396174
*ELSET, ELSET=MASS_1614
1614
*MASS, ELSET=MASS_1614
0.0104930783
*ELSET, ELSET=MASS_1615
1615
*MASS, ELSET=MASS_1615
0.0157396174
*ELSET, ELSET=MASS_1616
1616
*MASS, ELSET=MASS_1616
0.0131721621
*ELSET, ELSET=MASS_1617
1617
*MASS, ELSET=MASS_1617
0.00267908381
*ELSET, ELSET=MASS_1618
1618
*MASS, ELSET=MASS_1618
0.00267908381
*ELSET, ELSET=MASS_1619
1619
*MASS, ELSET=MASS_1619
0.0131721621
*ELSET, ELSET=MASS_1620
1620
*MASS, ELSET=MASS_1620
0.0157396174
*ELSET, ELSET=MASS_1621
1621
*MASS, ELSET=MASS_1621
0.0104930783
*ELSET, ELSET=MASS_1622
1622
*MASS, ELSET=MASS_1622
0.0157396174
*ELSET, ELSET=MASS_1623
1623
*MASS, ELSET=MASS_1623
0.0131721621
*ELSET, ELSET=MASS_1624
1624
*MASS, ELSET=MASS_1624
0.00267908381
*ELSET, ELSET=MASS_1625
1625
*MASS, ELSET=MASS_1625
0.00267908381
*ELSET, ELSET=MASS_1626
1626
*MASS, ELSET=MASS_1626
0.0131721621
*ELSET, ELSET=MASS_1627
1627
*MASS, ELSET=MASS_1627
0.0157396174
*ELSET, ELSET=MASS_1628
1628
*MASS, ELSET=MASS_1628
0.0104930783
*ELSET, ELSET=MASS_1629
1629
*MASS, ELSET=MASS_1629
0.0157396174
*ELSET, ELSET=MASS_1630
1630
*MASS, ELSET=MASS_1630
0.0131721621
*ELSET, ELSET=MASS_1631
1631
*MASS, ELSET=MASS_1631
0.00267908381
*ELSET, ELSET=MASS_1632
1632
*MASS, ELSET=MASS_1632
0.00267908381
*ELSET, ELSET=MASS_1633
1633
*MASS, ELSET=MASS_1633
0.0131721621
*ELSET, ELSET=MASS_1634
1634
*MASS, ELSET=MASS_1634
0.0157396174
*ELSET, ELSET=MASS_1635
1635
*MASS, ELSET=MASS_1635
0.0104930783
*ELSET, ELSET=MASS_1636
1636
*MASS, ELSET=MASS_1636
0.0157396174
*ELSET, ELSET=MASS_1637
1637
*MASS, ELSET=MASS_1637
0.0131721621
*ELSET, ELSET=MASS_1638
1638
*MASS, ELSET=MASS_1638
0.00267908381
*ELSET, ELSET=MASS_1639
1639
*MASS, ELSET=MASS_1639
0.00267908381
*ELSET, ELSET=MASS_1640
1640
*MASS, ELSET=MASS_1640
0.0131721621
*ELSET, ELSET=MASS_1641
1641
*MASS, ELSET=MASS_1641
0.0157396174
*ELSET, ELSET=MASS_1642
1642
*MASS, ELSET=MASS_1642
0.0104930783
*ELSET, ELSET=MASS_1643
1643
*MASS, ELSET=MASS_1643
0.0157396174
*ELSET, ELSET=MASS_1644
1644
*MASS, ELSET=MASS_1644
0.0131721621
*ELSET, ELSET=MASS_1645
1645
*MASS, ELSET=MASS_1645
0.00267908381
*ELSET, ELSET=MASS_1646
1646
*MASS, ELSET=MASS_1646
0.00267908381
*ELSET, ELSET=MASS_1647
1647
*MASS, ELSET=MASS_1647
0.0131721621
*ELSET, ELSET=MASS_1648
1648
*MASS, ELSET=MASS_1648
0.0157396174
*ELSET, ELSET=MASS_1649
1649
*MASS, ELSET=MASS_1649
0.0104930783
*ELSET, ELSET=MASS_1650
1650
*MASS, ELSET=MASS_1650
0.0157396174
*ELSET, ELSET=MASS_1651
1651
*MASS, ELSET=MASS_1651
0.0131721621
*ELSET, ELSET=MASS_1652
1652
*MASS, ELSET=MASS_1652
0.00267908381
*ELSET, ELSET=MASS_1653
1653
*MASS, ELSET=MASS_1653
0.00133954191
*ELSET, ELSET=MASS_1654
1654
*MASS, ELSET=MASS_1654
0.00658608104
*ELSET, ELSET=MASS_1655
1655
*MASS, ELSET=MASS_1655
0.0078698087
*ELSET, ELSET=MASS_1656
1656
*MASS, ELSET=MASS_1656
0.00524653914
*ELSET, ELSET=MASS_1657
1657
*MASS, ELSET=MASS_1657
0.0078698087
*ELSET, ELSET=MASS_1658
1658
*MASS, ELSET=MASS_1658
0.00658608104
*ELSET, ELSET=MASS_1659
1659
*MASS, ELSET=MASS_1659
0.00133954191
** BOUNDARY CONDITIONS
*BOUNDARY
TOWER_BASES, 1, 6, 0.
MAIN_CABLE_ANCHORS, 1, 3, 0.
WIND_ANCHORS, 1, 3, 0.
DECK_LEFT_PIN, 1, 3, 0.
DECK_RIGHT_ROLLER, 2, 3, 0.
*INITIAL CONDITIONS, TYPE=TEMPERATURE
NALL, 0.
*STEP, NAME=COMPLETED_STATE, NLGEOM=YES, INC=10000
*CONTROLS, PARAMETERS=FIELD
0.0053, 0.01, , , 0.02, 1.e-5, 1.e-3, 1.e-8
*STATIC
1.0E-4, 1.0, 1.0E-10, 5.0E-3
*TEMPERATURE
NALL, -1.
*DLOAD
E_GRAV, GRAV, 9810., 0., 0., -1.
*CLOAD
1, 3, -13.1409061
2, 3, -64.609455
3, 3, -77.2028234
4, 3, -51.4685489
5, 3, -77.2028234
6, 3, -64.609455
7, 3, -13.1409061
8, 3, -26.2818122
9, 3, -129.21891
10, 3, -154.405647
11, 3, -102.937098
12, 3, -154.405647
13, 3, -129.21891
14, 3, -26.2818122
15, 3, -26.2818122
16, 3, -129.21891
17, 3, -154.405647
18, 3, -102.937098
19, 3, -154.405647
20, 3, -129.21891
** ... 561 like lines cut
*NODE PRINT, NSET=MONITOR, FREQUENCY=1
U, RF
*EL PRINT, ELSET=MAIN_CABLES, FREQUENCY=1
S, E
*EL PRINT, ELSET=HANGERS, FREQUENCY=1
S, E
*EL PRINT, ELSET=LONG_GIRDERS, FREQUENCY=1
S, E
*NODE FILE, FREQUENCY=1
U, RF
*EL FILE, FREQUENCY=1
S, E
*END STEP
