*HEADING
Open HW-section shell cantilever verification
*NODE,NSET=ALL
1,0.00000000000e+00,0.00000000000e+00,-7.95000000000e-02
2,0.00000000000e+00,1.66666666667e-01,-7.95000000000e-02
3,0.00000000000e+00,1.66666666667e-01,7.95000000000e-02
4,0.00000000000e+00,0.00000000000e+00,7.95000000000e-02
5,0.00000000000e+00,8.33333333333e-02,-7.95000000000e-02
6,0.00000000000e+00,1.66666666667e-01,0.00000000000e+00
7,0.00000000000e+00,8.33333333333e-02,7.95000000000e-02
8,0.00000000000e+00,0.00000000000e+00,0.00000000000e+00
9,-8.50000000000e-02,0.00000000000e+00,7.95000000000e-02
10,-8.50000000000e-02,1.66666666667e-01,7.95000000000e-02
11,-8.50000000000e-02,8.33333333333e-02,7.95000000000e-02
12,-4.25000000000e-02,1.66666666667e-01,7.95000000000e-02
13,-4.25000000000e-02,0.00000000000e+00,7.95000000000e-02
14,8.50000000000e-02,1.66666666667e-01,7.95000000000e-02
15,8.50000000000e-02,0.00000000000e+00,7.95000000000e-02
16,4.25000000000e-02,1.66666666667e-01,7.95000000000e-02
17,8.50000000000e-02,8.33333333333e-02,7.95000000000e-02
18,4.25000000000e-02,0.00000000000e+00,7.95000000000e-02
19,-8.50000000000e-02,0.00000000000e+00,-7.95000000000e-02
20,-8.50000000000e-02,1.66666666667e-01,-7.95000000000e-02
** ... 199 like lines cut
*MATERIAL,NAME=STEEL
*ELASTIC
2.06000000000e+11,0.31
*DENSITY
7850.0
*ELEMENT,TYPE=S8R,ELSET=S0
1,1,2,3,4,5,6,7,8
6,2,29,30,3,31,32,33,6
11,29,46,47,30,48,49,50,32
16,46,63,64,47,65,66,67,49
21,63,80,81,64,82,83,84,66
26,80,97,98,81,99,100,101,83
31,97,114,115,98,116,117,118,100
36,114,131,132,115,133,134,135,117
41,131,148,149,132,150,151,152,134
46,148,165,166,149,167,168,169,151
51,165,182,183,166,184,185,186,168
56,182,199,200,183,201,202,203,185
*SHELL SECTION,ELSET=S0,MATERIAL=STEEL
7.00000000000e-03
*ELEMENT,TYPE=S8R,ELSET=S1
2,9,10,3,4,11,12,7,13
3,4,3,14,15,7,16,17,18
4,19,20,2,1,21,22,5,23
5,1,2,24,25,5,26,27,28
7,10,34,30,3,35,36,33,12
8,3,30,37,14,33,38,39,16
9,20,40,29,2,41,42,31,22
10,2,29,43,24,31,44,45,26
12,34,51,47,30,52,53,50,36
13,30,47,54,37,50,55,56,38
14,40,57,46,29,58,59,48,42
15,29,46,60,43,48,61,62,44
17,51,68,64,47,69,70,67,53
18,47,64,71,54,67,72,73,55
19,57,74,63,46,75,76,65,59
20,46,63,77,60,65,78,79,61
22,68,85,81,64,86,87,84,70
23,64,81,88,71,84,89,90,72
24,74,91,80,63,92,93,82,76
25,63,80,94,77,82,95,96,78
** ... 28 like lines cut
*SHELL SECTION,ELSET=S1,MATERIAL=STEEL
1.10000000000e-02
*ELSET,ELSET=STEELALL,GENERATE
1,60,1
*NSET,NSET=RB0
9,19,4,1,15,25,8
*RIGID BODY,NSET=RB0,REF NODE=216,ROT NODE=217
*NSET,NSET=RB1
204,210,200,199,207,213,202
*RIGID BODY,NSET=RB1,REF NODE=218,ROT NODE=219
*BOUNDARY
216,1,1
216,2,2
216,3,3
217,1,1
217,2,2
217,3,3
*NSET,NSET=OBS
216,218
*STEP,NLGEOM,INC=100
*STATIC
1.,1.,1.e-8,1.
*CLOAD
218,3,-1.00000000000e+02
*NODE PRINT,NSET=OBS
U,RF
*NODE FILE,OUTPUT=2D
U
*END STEP
