! C10 ALL 六自由度 rigid-beam 单位荷载测试；本文件由 prepare 生成但不自动执行。
! 初始偏置向量为 (800,-600,500) mm，反力矩验收包含力对 master 的偏置矩。
/CLEAR,START ! 清空未来独立微模型会话。
/FILNAME,c10all_mx ! 设置当前案例唯一 ASCII 作业名。
/PREP7 ! 进入前处理器定义刚梁和零变形支撑梁。
ET,1,BEAM188 ! 定义可变形支撑梁以满足刚性单元静力使用限制。
KEYOPT,1,3,3 ! 采用三次插值梁公式。
MP,EX,1,210000 ! 设置钢材弹性模量 210000 MPa。
MP,PRXY,1,0.3 ! 设置泊松比 0.3。
SECTYPE,1,BEAM,RECT,C10ALL ! 定义 10 mm 乘 10 mm 矩形测试截面。
SECDATA,10,10 ! 写入矩形截面宽高，单位 mm。
ET,72,MPC184 ! 定义 ALL 六自由度 rigid beam。
KEYOPT,72,1,1 ! 选择六自由度 rigid-beam 公式。
KEYOPT,72,2,0 ! 使用直接消元实施刚接。
KEYOPT,72,5,0 ! 保留有限转动几何刚度。
CSYS,0 ! 使用全局笛卡尔坐标定义偏置。
N,1,0,0,0 ! 定义固定 master 节点。
N,2,800,-600,500 ! 定义偏置 slave 节点。
N,3,800,400,500 ! 定义可变形支撑梁固定端。
N,4,800,-600,1500 ! 定义 BEAM188 截面方向节点。
TYPE,1 ! 选择可变形 BEAM188 类型。
MAT,1 ! 选择测试钢材。
SECNUM,1 ! 选择测试矩形截面。
EN,10,2,3,4 ! 建立 slave 到固定端的可变形支撑梁。
TYPE,72 ! 选择六自由度 rigid-beam 类型。
EN,1,1,2 ! 建立 master 到 slave 的 ALL 刚接。
D,1,ALL,0 ! 固定 master 全部有效自由度。
D,3,ALL,0 ! 固定可变形支撑梁远端全部自由度。
F,2,MX,1 ! 在 slave 施加当前单位荷载。
FINISH ! 完成 ALL 微模型前处理。
/SOLU ! 进入静力求解器。
ANTYPE,STATIC ! 选择静力分析。
NLGEOM,ON ! 启用与全桥一致的大转动运动学。
NROPT,FULL ! 每次迭代更新完整切线。
AUTOTS,OFF ! 关闭自动子步以保持确定的单位荷载路径。
NSUBST,1,1,1 ! 用一个子步施加单位荷载。
OUTRES,ALL,ALL ! 保存全部结果供六自由度传力复核。
SOLVE ! 执行当前 ALL 测试；prepare 生成器不会调用本文件。
FINISH ! 结束求解阶段。
/POST1 ! 进入结果后处理。
SET,LAST ! 读取唯一收敛结果集。
*GET,C10_USX,NODE,2,U,X ! 读取 slave X 位移，单位 mm。
*GET,C10_USY,NODE,2,U,Y ! 读取 slave Y 位移，单位 mm。
*GET,C10_USZ,NODE,2,U,Z ! 读取 slave Z 位移，单位 mm。
*GET,C10_RSX,NODE,2,ROT,X ! 读取 slave 绕 X 转角，单位 rad。
*GET,C10_RSY,NODE,2,ROT,Y ! 读取 slave 绕 Y 转角，单位 rad。
*GET,C10_RSZ,NODE,2,ROT,Z ! 读取 slave 绕 Z 转角，单位 rad。
*GET,C10_MRFX,NODE,1,RF,FX ! 读取 master 的 X 向反力，单位 N。
*GET,C10_MRFY,NODE,1,RF,FY ! 读取 master 的 Y 向反力，单位 N。
*GET,C10_MRFZ,NODE,1,RF,FZ ! 读取 master 的 Z 向反力，单位 N。
*GET,C10_MRMX,NODE,1,RF,MX ! 读取 master 的 X 向反力矩，单位 N·mm。
*GET,C10_MRMY,NODE,1,RF,MY ! 读取 master 的 Y 向反力矩，单位 N·mm。
*GET,C10_MRMZ,NODE,1,RF,MZ ! 读取 master 的 Z 向反力矩，单位 N·mm。
*GET,C10_GRFX,NODE,3,RF,FX ! 读取支撑梁固定端 X 向反力，单位 N。
*GET,C10_GRFY,NODE,3,RF,FY ! 读取支撑梁固定端 Y 向反力，单位 N。
*GET,C10_GRFZ,NODE,3,RF,FZ ! 读取支撑梁固定端 Z 向反力，单位 N。
*GET,C10_GRMX,NODE,3,RF,MX ! 读取支撑梁固定端 X 向反力矩，单位 N·mm。
*GET,C10_GRMY,NODE,3,RF,MY ! 读取支撑梁固定端 Y 向反力矩，单位 N·mm。
*GET,C10_GRMZ,NODE,3,RF,MZ ! 读取支撑梁固定端 Z 向反力矩，单位 N·mm。
/OUTPUT,c10all_mx_results,txt ! 打开当前 ALL 案例机器结果文件。
*VWRITE,C10_USX,C10_USY,C10_USZ,C10_RSX,C10_RSY,C10_RSZ ! 输出 slave 六自由度运动。
('SLAVE_U=',3(E24.16,','),'SLAVE_ROT=',3(E24.16,','))
*VWRITE,C10_MRFX,C10_MRFY,C10_MRFZ,C10_MRMX,C10_MRMY,C10_MRMZ ! 输出 master 六分量反力。
('MASTER_RF_F=',3(E24.16,','),'MASTER_RF_M=',3(E24.16,','))
*VWRITE,C10_GRFX,C10_GRFY,C10_GRFZ,C10_GRMX,C10_GRMY,C10_GRMZ ! 输出可变形支撑梁固定端六分量反力。
('GROUND_RF_F=',3(E24.16,','),'GROUND_RF_M=',3(E24.16,','))
/OUTPUT ! 恢复主输出。
FINISH ! 完成 ALL 后处理。
/EXIT,NOSAVE ! 退出且不保留微模型数据库。
