/CLEAR,NOSTART                         ! 清空当前数据库但不重启 MAPDL，确保受拉弦基准不继承任何项目模型状态。
/FILNAME,cw_u01_01_0715t225028_8a ! 使用本次 U01 manifest 绑定的唯一作业名，禁止复用历史前缀。
/TITLE,VM53 PRESTRESSED STRING MODAL   ! 设置标题，说明本作业复现 ANSYS VM53 的预应力弦模态已知答案。
/PREP7                                 ! 进入前处理器，以定义受拉弦的单元、截面、材料、网格与等效初始拉应力。
ANTYPE,STATIC                          ! 首先选择静力分析，用等效初始拉应力建立后续线性扰动模态所需的非线性平衡基态。
ET,1,LINK180                           ! 定义 1 号单元类型为 LINK180，与当前猫道承重索采用的单元族一致。
! MAPDL 2026 R1 已将 KEYOPT(3)=1 报告为未文档化；本派生算例改用官方 LINK 截面的 SECCONTROL TENSKEY。
SECTYPE,1,LINK                         ! 定义 1 号杆/索截面，使 LINK180 使用后续给出的轴向面积。
SECDATA,306796E-8                      ! 将面积设为 306,796×10^-8 in^2，数值来自官方 VM53 一致单位定义。
SECCONTROL,,1                         ! 将 LINK 截面的 TENSKEY 设为 1，按 MAPDL 2026 R1 官方接口启用仅受拉行为。
MP,EX,1,30E6                           ! 将 1 号材料弹性模量设为 30,000,000 psi，数值来自官方 VM53。
MP,DENS,1,73E-5                        ! 将 1 号材料质量密度参数设为 73×10^-5，沿用官方动力一致单位值。
N,1,0,0,0                              ! 建立左端节点 1，坐标为 (0,0,0) in，作为受拉弦的固定端。
N,14,100,0,0                           ! 建立右端节点 14，坐标为 (100,0,0) in，使弦总长度为 100 in。
FILL,1,14                              ! 在两个端点之间等距生成节点 2 至 13，形成 13 个等长网格区间。
E,1,2                                  ! 在节点 1 与节点 2 之间建立第一段 LINK180 弦单元。
EGEN,13,1,1                            ! 连续复制第一段得到共 13 个单元，覆盖节点 1 至节点 14 的整根弦。
INISTATE,SET,CSYS,-2                   ! 将初始状态坐标系设为单元坐标系，令等效初始拉应力沿弦轴向施加。
INISTATE,SET,DTYP,STRE                 ! 将初始状态改为轴向应力，使 NLGEOM 线性扰动重形成能够继承预拉几何刚度。
INISTATE,DEFINE,,,,,162974.4           ! 施加 162974.4 psi 初始拉应力；该值等于 30E6 psi×543248E-8，对应约 500 lb 拉力。
OUTRES,ALL,LAST                        ! 只保留静力末子步的完整结果，减少文件量并保证 restart 指向平衡终态。
RESCONTROL,LINEAR,ALL,1                ! 保存线性扰动所需的重启动数据，使后续 PERTURB 能读取静力基态矩阵。
D,ALL,UY                              ! 在 NLGEOM 静力基态约束全部横向 UY，防止无初始横向刚度的受拉弦形成机构。
D,ALL,UZ                              ! 在 NLGEOM 静力基态约束全部横向 UZ，使三维 LINK180 只沿轴向寻找平衡。
D,1,UX                                ! 约束左端节点 1 的轴向 UX，定义受拉弦总长的左边界。
D,14,UX                               ! 约束右端节点 14 的轴向 UX，固定总长并让节点 2 至 13 保持活动轴向自由度。
FINISH                                 ! 退出前处理器，完成静力基态的模型、初始状态和约束定义。
/SOLU                                  ! 进入求解器以计算受拉弦的预应力静力基态。
NLGEOM,ON                              ! 显式打开几何非线性，使本算例完整覆盖 U01 要求的 NLGEOM 静力链。
NSUBST,1,1,1                           ! 固定一个静力子步；三个 1 分别表示目标、最小和最大子步数，消除自动初始步长歧义。
SOLVE                                  ! 在全体 UY/UZ 与两端 UX 约束下求解初始拉应力平衡态，生成应力、反力和 restart 数据。
FINISH                                 ! 退出求解器，以便先提取静力拉力和应力，再启动线性扰动分析。
/POST1                                 ! 进入通用后处理器，从静力结果集中读取 LINK180 轴向应力。
SET,LAST                               ! 显式选择最后一个静力结果集，避免误读后续模态或其他载荷步结果。
ETABLE,STRS,LS,1                       ! 将 LINK180 的轴向应力写入四字符 STRS 单元表列，避免 MAPDL 八字符标签上限截断长名称。
*GET,STRSS,ELEM,13,ETAB,STRS           ! 读取第 13 个单元应力并存入短参数 STRSS；均匀弦上任一单元均应接近 162,974 psi。
FINISH                                 ! 退出 POST1，准备使用 POST26 读取左端节点的静力反力即弦拉力。
/POST26                                ! 进入时间历程后处理器，以官方相同口径提取节点 1 的 X 向反力。
RFORCE,2,1,F,X                         ! 将节点 1 的全局 X 向反力存入变量 2，该反力绝对值就是弦的预拉力。
STORE                                  ! 把静力结果数据读入 POST26 变量存储区，使 *GET 可以取得反力极值。
*GET,FORCE,VARI,2,EXTREM,VMAX          ! 读取 X 向反力最大值并存入短参数 FORCE；验收时取绝对值与 500 lb 比较。
PARSAV,ALL,vm53par,parm                ! 将静力拉力和应力参数保存到短文件名 vm53par.parm，避免旧式文件名长度限制。
FINISH                                 ! 退出 POST26，避免在后处理状态下直接发出求解器重启动命令。
/SOLU                                  ! 重新进入求解器，开始围绕静力平衡态的线性扰动模态步骤。
ANTYPE,STATIC,RESTART,,,PERTURB         ! 从最后静力子步重启动并声明线性扰动分析，继承已建立的预应力基态。
PERTURB,MODAL,,,PARKEEP                ! 选择模态扰动并保留参数与约束定义，避免静力阶段参数在重启动时丢失。
SOLVE,ELFORM                           ! 在当前平衡构形和应力状态下重新形成单元切线矩阵，其中包含应力刚化贡献。
PARRES,CHANGE,vm53par,parm             ! 从短文件名 vm53par.parm 恢复静力拉力与应力参数，供最终结果一并输出。
MODOPT,LANB,3                          ! 使用 Block Lanczos 提取前三阶特征频率，与项目拟采用的低阶求解方法一致。
MXPAND,3                               ! 展开前三阶模态结果，使每一阶均有可供审计的完整结果集。
! 节点 2 至 13 的 UX 已在 NLGEOM 静力基态保持活动，摄动阶段无需再次删除轴向约束。
DDELE,2,UY,13                          ! 释放节点 2 至 13 的横向 UY，使弦能够在 X-Y 平面内产生横向振动。
SOLVE                                  ! 求解预应力切线特征值问题，得到受拉弦的前三阶横向频率。
FINISH                                 ! 退出求解器，准备按模态序号读取频率并写出机器可读结果。
/POST1                                 ! 进入通用后处理器，以访问刚完成的模态结果和模态属性。
*GET,FREQ1,MODE,1,FREQ                 ! 读取第一阶离散频率；13 单元参考约 74.89 Hz，74.708 Hz 为连续弦解析参考。
*GET,FREQ2,MODE,2,FREQ                 ! 读取第二阶离散频率；13 单元参考约 150.875 Hz，149.42 Hz 为连续弦解析参考。
*GET,FREQ3,MODE,3,FREQ                 ! 读取第三阶离散频率；13 单元参考约 229.06 Hz，224.12 Hz 为连续弦解析参考。
*CFOPEN,vm53_result,csv                 ! 打开短文件名结果 CSV；五列字段、单位和比较规则已在相邻 README 中说明。
*VWRITE,FORCE,STRSS,FREQ1,FREQ2,FREQ3  ! 按五项固定顺序写值；紧邻下一行用五列逗号分隔格式并保留 10 位小数。
(F20.10,',',F20.10,',',F20.10,',',F20.10,',',F20.10)
*CFCLOS                                 ! 关闭结果 CSV，确保五个结果完整落盘并可与官方目标逐项比较。
FINISH                                 ! 退出 POST1，完成 VM53 独立预应力模态基准作业。
/EXIT,NOSAVE                           ! 不保存数据库并正常退出 MAPDL，防止基准数据库与项目模型基态混用。
