*HEADING
Zhangjinggao catwalk centerline FEM
** coordinate: x = chainage - K16+876.000, y upstream->downstream, z up
** units: m, N, kg, s
** geometry: STEP cw_S10_0716t050342_a4_centerline.step (Release catwalk-attachment23-v2.0-s10-20260716)
** properties: drawings / check report; NOT S10.db, NOT B00, NOT MCT, NOT TARGET-FREQ
** write_inp: complete deck (nodes, elsets, materials, BC, initial stress, load cases)
** anchors: floor-rope and portal-rope families are DISJOINT NSETs; do not mix
** topology audit: 21 cross-passages, 71 portals/deck = 142 both decks
** nodes=51896 elements=30317

*NODE
1, 0.000000, -23.660000, 44.310000
2, 0.000000, -23.400000, 44.310000
3, 0.000000, -23.140000, 44.310000
4, 0.000000, -19.760000, 44.310000
5, 0.000000, -19.500000, 44.310000
6, 0.000000, -19.240000, 44.310000
7, 0.000000, 19.240000, 44.310000
8, 0.000000, 19.500000, 44.310000
9, 0.000000, 19.760000, 44.310000
10, 0.000000, 23.140000, 44.310000
11, 0.000000, 23.400000, 44.310000
12, 0.000000, 23.660000, 44.310000
13, 21.014000, -24.120000, 28.152000
14, 21.014000, -23.860000, 28.152000
15, 21.014000, -23.600000, 28.152000
16, 21.014000, -23.340000, 28.152000
17, 21.014000, -23.080000, 28.152000
18, 21.014000, -22.820000, 28.152000
19, 21.014000, -22.560000, 28.152000
20, 21.014000, -22.300000, 28.152000
** ... 51876 like lines cut
*NSET, NSET=N_SUP_X0
1, 2, 3, 4, 5, 6, 7, 8, 9, 10
11, 12
*NSET, NSET=N_SUP_NT_SADDLE
9522, 9523, 9524, 9525, 9526, 9527, 9528, 9529, 9530, 9531
9532, 9533, 9534, 9535, 9536, 9537, 9538, 9539, 9540, 9541
9542, 9543, 9544, 9545, 9546, 9547, 9548, 9549, 9550, 9551
9552, 9553, 9554, 9555, 9556, 9557, 9558, 9559, 9560, 9561
9562, 9563, 9564, 9565, 9566, 9567, 9568, 9569, 9570, 9571
9572, 9573, 9574, 9575, 9576, 9577, 9578, 9579, 9580, 9581
9582, 9583, 9584, 9585, 9586, 9587, 9588, 9589, 9590, 9591
9592, 9593, 9594, 9595, 9596, 9597, 9598, 9599, 9600, 9601
9602, 9603, 9604, 9605, 9606, 9607, 9608, 9609, 9610, 9611
9612, 9613, 9614, 9615, 9616, 9617, 9618, 9619, 9620, 9621
9622, 9623, 9624, 9625, 9626, 9627, 9628, 9629, 9630, 9631
9632, 9633, 9634, 9635, 9636, 9637, 9638, 9639, 9640, 9641
9642, 9643, 9644, 9645, 9646, 9647, 9648, 9649, 9650, 9651
9652, 9653, 9654, 9655, 9656, 9657, 9658, 9659, 9660, 9661
9662, 9663, 9664, 9665, 9666, 9667, 9668, 9669, 9670, 9671
9672, 9673, 9674, 9675, 9676, 9677, 9678, 9679, 9680, 9681
9682, 9683, 9684, 9685, 9686, 9687, 9688, 9689, 9690, 9691
9692, 9693, 9694, 9695, 9696, 9697, 9698, 9699, 9700, 9701
9702, 9703, 9704, 9705, 9706, 9707, 9708, 9709, 9710, 9711
9712, 9713, 9714, 9715, 9716, 9717, 9718, 9719, 9720, 9721
** ... 4 like lines cut
*NSET, NSET=N_SUP_ST_SADDLE
32972, 32973, 32974, 32975, 32976, 32977, 32978, 32979, 32980, 32981
32982, 32983, 32984, 32985, 32986, 32987, 32988, 32989, 32990, 32991
32992, 32993, 32994, 32995, 32996, 32997, 32998, 32999, 33000, 33001
33002, 33003, 33004, 33005, 33006, 33007, 33008, 33009, 33010, 33011
33012, 33013, 33014, 33015, 33016, 33017, 33018, 33019, 33020, 33021
33022, 33023, 33024, 33025, 33026, 33027, 33028, 33029, 33030, 33031
33032, 33033, 33034, 33035, 33036, 33037, 33038, 33039, 33040, 33041
33042, 33043, 33044, 33045, 33046, 33047, 33048, 33049, 33050, 33051
33052, 33053, 33054, 33055, 33056, 33057, 33058, 33059, 33060, 33061
33062, 33063, 33064, 33065, 33066, 33067, 33068, 33069, 33070, 33071
33072, 33073, 33074, 33075, 33076, 33077, 33078, 33079, 33080, 33081
33082, 33083, 33084, 33085, 33086, 33087, 33088, 33089, 33090, 33091
33092, 33093, 33094, 33095, 33096, 33097, 33098, 33099, 33100, 33101
33102, 33103
*NSET, NSET=N_SUP_AUX
42955, 42956, 42957, 42958, 42959, 42960, 42961, 42962, 42963, 42964
42965, 42966, 42967, 42968, 42969, 42970, 42971, 42972, 42973, 42974
42975, 42976, 42977, 42978, 42979, 42980, 42981, 42982, 42983, 42984
42985, 42986, 42987, 42988, 42989, 42990, 42991, 42992, 42993, 42994
42995, 42996, 42997, 42998, 42999, 43000, 43001, 43002, 43003, 43004
43005, 43006, 43007, 43008, 43009, 43010, 43011, 43012, 43013, 43014
43015, 43016, 43017, 43018, 43019, 43020, 43021, 43022, 43023, 43024
43025, 43026, 43027, 43028, 43029, 43030, 43031, 43032, 43033, 43034
43035, 43036, 43037, 43038, 43039, 43040, 43041, 43042, 43043, 43044
43045, 43046, 43047, 43048, 43049, 43050, 43051, 43052, 43053, 43054
43055, 43056, 43057, 43058, 43059, 43060, 43061, 43062, 43063, 43064
43065, 43066, 43067, 43068, 43069, 43070, 43071, 43072, 43073, 43074
43075, 43076, 43077, 43078, 43079, 43080, 43081, 43082
*NSET, NSET=N_SUP_X4180
50903, 50904, 50905, 50906, 50907, 50908, 50909, 50910, 50911, 50912
50913, 50914, 50915, 50916, 50917, 50918, 50919, 50920, 50921, 50922
50923, 50924, 50925, 50926, 50927, 50928, 50929, 50930, 50931, 50932
50933, 50934, 50935, 50936, 50937, 50938, 50939, 50940, 50941, 50942
50943, 50944, 50945, 50946, 50947, 50948, 50949, 50950, 50951, 50952
50953, 50954, 50955, 50956, 50957, 50958, 50959, 50960, 50961, 50962
50963, 50964, 50965, 50966, 50967, 50968, 50969, 50970, 50971, 50972
50973, 50974, 50975, 50976, 50977, 50978, 50979, 50980, 50981, 50982
50983, 50984, 50985, 50986, 50987, 50988, 50989, 50990, 50991, 50992
50993, 50994, 50995, 50996, 50997, 50998, 50999, 51000, 51001, 51002
51003, 51004, 51005, 51006, 51007, 51008, 51009, 51010, 51011, 51012
51013, 51014, 51015, 51016, 51017, 51018, 51019, 51020, 51021, 51022
51023, 51024, 51025, 51026, 51027, 51028, 51029, 51030, 51031, 51032
51033, 51034, 51035, 51036, 51037, 51038, 51039, 51040, 51041, 51042
51043, 51044, 51045, 51046, 51047, 51048, 51049, 51050, 51051, 51052
51053, 51054, 51055, 51056, 51057, 51058, 51059, 51060, 51061, 51062
51063, 51064, 51065, 51066, 51067, 51068, 51069, 51070, 51071, 51072
51073, 51074, 51075, 51076, 51077, 51078, 51079, 51080, 51081, 51082
51083, 51084, 51085, 51086, 51087, 51088, 51089, 51090, 51091, 51092
51093, 51094, 51095, 51096, 51097, 51098, 51099, 51100, 51101, 51102
** ... 20 like lines cut
*NSET, NSET=N_SUPPORT_SADDLE_ENDS
1, 2, 3, 4, 5, 6, 7, 8, 9, 10
11, 12, 9522, 9523, 9524, 9525, 9526, 9527, 9528, 9529
9530, 9531, 9532, 9533, 9534, 9535, 9536, 9537, 9538, 9539
9540, 9541, 9542, 9543, 9544, 9545, 9546, 9547, 9548, 9549
9550, 9551, 9552, 9553, 9554, 9555, 9556, 9557, 9558, 9559
9560, 9561, 9562, 9563, 9564, 9565, 9566, 9567, 9568, 9569
9570, 9571, 9572, 9573, 9574, 9575, 9576, 9577, 9578, 9579
9580, 9581, 9582, 9583, 9584, 9585, 9586, 9587, 9588, 9589
9590, 9591, 9592, 9593, 9594, 9595, 9596, 9597, 9598, 9599
9600, 9601, 9602, 9603, 9604, 9605, 9606, 9607, 9608, 9609
9610, 9611, 9612, 9613, 9614, 9615, 9616, 9617, 9618, 9619
9620, 9621, 9622, 9623, 9624, 9625, 9626, 9627, 9628, 9629
9630, 9631, 9632, 9633, 9634, 9635, 9636, 9637, 9638, 9639
9640, 9641, 9642, 9643, 9644, 9645, 9646, 9647, 9648, 9649
9650, 9651, 9652, 9653, 9654, 9655, 9656, 9657, 9658, 9659
9660, 9661, 9662, 9663, 9664, 9665, 9666, 9667, 9668, 9669
9670, 9671, 9672, 9673, 9674, 9675, 9676, 9677, 9678, 9679
9680, 9681, 9682, 9683, 9684, 9685, 9686, 9687, 9688, 9689
9690, 9691, 9692, 9693, 9694, 9695, 9696, 9697, 9698, 9699
9700, 9701, 9702, 9703, 9704, 9705, 9706, 9707, 9708, 9709
** ... 71 like lines cut
*NSET, NSET=N_SUPPORT_ALL
1, 2, 3, 4, 5, 6, 7, 8, 9, 10
11, 12, 9522, 9523, 9524, 9525, 9526, 9527, 9528, 9529
9530, 9531, 9532, 9533, 9534, 9535, 9536, 9537, 9538, 9539
9540, 9541, 9542, 9543, 9544, 9545, 9546, 9547, 9548, 9549
9550, 9551, 9552, 9553, 9554, 9555, 9556, 9557, 9558, 9559
9560, 9561, 9562, 9563, 9564, 9565, 9566, 9567, 9568, 9569
9570, 9571, 9572, 9573, 9574, 9575, 9576, 9577, 9578, 9579
9580, 9581, 9582, 9583, 9584, 9585, 9586, 9587, 9588, 9589
9590, 9591, 9592, 9593, 9594, 9595, 9596, 9597, 9598, 9599
9600, 9601, 9602, 9603, 9604, 9605, 9606, 9607, 9608, 9609
9610, 9611, 9612, 9613, 9614, 9615, 9616, 9617, 9618, 9619
9620, 9621, 9622, 9623, 9624, 9625, 9626, 9627, 9628, 9629
9630, 9631, 9632, 9633, 9634, 9635, 9636, 9637, 9638, 9639
9640, 9641, 9642, 9643, 9644, 9645, 9646, 9647, 9648, 9649
9650, 9651, 9652, 9653, 9654, 9655, 9656, 9657, 9658, 9659
9660, 9661, 9662, 9663, 9664, 9665, 9666, 9667, 9668, 9669
9670, 9671, 9672, 9673, 9674, 9675, 9676, 9677, 9678, 9679
9680, 9681, 9682, 9683, 9684, 9685, 9686, 9687, 9688, 9689
9690, 9691, 9692, 9693, 9694, 9695, 9696, 9697, 9698, 9699
9700, 9701, 9702, 9703, 9704, 9705, 9706, 9707, 9708, 9709
** ... 71 like lines cut
** FAMILY ANCHORS: floor and portal kept in separate NSETs
** DECLARED: N_FLOOR_N N_FLOOR_S N_PORTAL_N N_PORTAL_S N_FLOOR_ANCHOR N_PORTAL_ANCHOR
*NSET, NSET=N_FLOOR_N
1, 2, 3, 4, 5, 6, 7, 8, 9, 10
11, 12
*NSET, NSET=N_FLOOR_S
51383, 51384, 51385, 51386, 51387, 51388, 51389, 51390, 51391, 51392
51393, 51394, 51395, 51396, 51397, 51398, 51399, 51400, 51401, 51402
51403, 51404, 51405, 51406, 51407, 51408, 51409, 51410, 51411, 51412
51413, 51414, 51415, 51416, 51417, 51418, 51419, 51420, 51421, 51422
51423, 51424, 51425, 51426, 51427, 51428, 51429, 51430, 51431, 51432
51433, 51434, 51435, 51436, 51437, 51438, 51439, 51440, 51441, 51442
51443, 51444, 51445, 51446, 51447, 51448, 51449, 51450, 51451, 51452
51453, 51454, 51455, 51456, 51457, 51458, 51459, 51460, 51461, 51462
51463, 51464, 51465, 51466, 51467, 51468, 51469, 51470, 51471, 51472
51473, 51474, 51475, 51476, 51477, 51478, 51479, 51480, 51481, 51482
51483, 51484, 51485, 51486, 51487, 51488, 51489, 51490, 51491, 51492
51493, 51494, 51495, 51496, 51497, 51498, 51499, 51500, 51501, 51502
51503, 51504, 51505, 51506, 51507, 51508, 51509, 51510, 51511, 51512
51513, 51514, 51515, 51516, 51517, 51518, 51519, 51520, 51521, 51522
51527, 51528, 51529, 51530, 51531, 51532, 51533, 51534, 51535, 51536
51537, 51538, 51539, 51540, 51541, 51542, 51543, 51544, 51545, 51546
51547, 51548, 51549, 51550, 51551, 51552, 51553, 51554, 51555, 51556
51557, 51558, 51559, 51560, 51561, 51562, 51563, 51564, 51565, 51566
51567, 51568, 51569, 51570, 51571, 51572, 51573, 51574, 51575, 51576
51577, 51578, 51579, 51580, 51581, 51582, 51583, 51584, 51585, 51586
** ... 10 like lines cut
*NSET, NSET=N_PORTAL_N
77, 78, 79, 80, 81, 82, 83, 84, 85, 86
87, 88
*NSET, NSET=N_PORTAL_S
51711, 51712, 51713, 51714
*NSET, NSET=N_FLOOR_ANCHOR
1, 2, 3, 4, 5, 6, 7, 8, 9, 10
11, 12, 51383, 51384, 51385, 51386, 51387, 51388, 51389, 51390
51391, 51392, 51393, 51394, 51395, 51396, 51397, 51398, 51399, 51400
51401, 51402, 51403, 51404, 51405, 51406, 51407, 51408, 51409, 51410
51411, 51412, 51413, 51414, 51415, 51416, 51417, 51418, 51419, 51420
51421, 51422, 51423, 51424, 51425, 51426, 51427, 51428, 51429, 51430
51431, 51432, 51433, 51434, 51435, 51436, 51437, 51438, 51439, 51440
51441, 51442, 51443, 51444, 51445, 51446, 51447, 51448, 51449, 51450
51451, 51452, 51453, 51454, 51455, 51456, 51457, 51458, 51459, 51460
51461, 51462, 51463, 51464, 51465, 51466, 51467, 51468, 51469, 51470
51471, 51472, 51473, 51474, 51475, 51476, 51477, 51478, 51479, 51480
51481, 51482, 51483, 51484, 51485, 51486, 51487, 51488, 51489, 51490
51491, 51492, 51493, 51494, 51495, 51496, 51497, 51498, 51499, 51500
51501, 51502, 51503, 51504, 51505, 51506, 51507, 51508, 51509, 51510
51511, 51512, 51513, 51514, 51515, 51516, 51517, 51518, 51519, 51520
51521, 51522, 51527, 51528, 51529, 51530, 51531, 51532, 51533, 51534
51535, 51536, 51537, 51538, 51539, 51540, 51541, 51542, 51543, 51544
51545, 51546, 51547, 51548, 51549, 51550, 51551, 51552, 51553, 51554
51555, 51556, 51557, 51558, 51559, 51560, 51561, 51562, 51563, 51564
51565, 51566, 51567, 51568, 51569, 51570, 51571, 51572, 51573, 51574
** ... 12 like lines cut
*NSET, NSET=N_PORTAL_ANCHOR
77, 78, 79, 80, 81, 82, 83, 84, 85, 86
87, 88, 51711, 51712, 51713, 51714
** floor/portal NSET overlap count = 0 (must be 0)
*NSET, NSET=N_UPSTREAM
1, 2, 3, 4, 5, 6, 13, 14, 15, 16
17, 18, 19, 20, 21, 22, 23, 24, 25, 26
27, 28, 45, 46, 47, 48, 49, 50, 51, 52
53, 54, 55, 56, 57, 58, 59, 60, 77, 78
81, 82, 85, 86, 89, 90, 91, 92, 93, 94
101, 102, 103, 104, 105, 106, 113, 114, 115, 116
117, 118, 119, 120, 121, 122, 123, 124, 125, 126
127, 128, 145, 146, 147, 148, 149, 150, 157, 158
159, 160, 161, 162, 163, 164, 165, 166, 167, 168
169, 170, 171, 172, 189, 190, 191, 192, 193, 194
195, 196, 197, 198, 199, 200, 201, 202, 203, 204
221, 222, 225, 226, 227, 228, 229, 230, 231, 232
233, 234, 235, 236, 237, 238, 239, 240, 257, 258
259, 260, 261, 262, 263, 264, 265, 266, 267, 268
269, 270, 271, 272, 289, 290, 293, 294, 295, 296
297, 298, 299, 300, 301, 302, 303, 304, 305, 306
307, 308, 325, 326, 327, 328, 329, 330, 331, 332
333, 334, 335, 336, 337, 338, 339, 340, 357, 358
359, 360, 361, 362, 363, 364, 365, 366, 367, 368
369, 370, 371, 372, 389, 390, 391, 392, 393, 394
** ... 2567 like lines cut
*NSET, NSET=N_DOWNSTREAM
7, 8, 9, 10, 11, 12, 29, 30, 31, 32
33, 34, 35, 36, 37, 38, 39, 40, 41, 42
43, 44, 61, 62, 63, 64, 65, 66, 67, 68
69, 70, 71, 72, 73, 74, 75, 76, 79, 80
83, 84, 87, 88, 95, 96, 97, 98, 99, 100
107, 108, 109, 110, 111, 112, 129, 130, 131, 132
133, 134, 135, 136, 137, 138, 139, 140, 141, 142
143, 144, 151, 152, 153, 154, 155, 156, 173, 174
175, 176, 177, 178, 179, 180, 181, 182, 183, 184
185, 186, 187, 188, 205, 206, 207, 208, 209, 210
211, 212, 213, 214, 215, 216, 217, 218, 219, 220
223, 224, 241, 242, 243, 244, 245, 246, 247, 248
249, 250, 251, 252, 253, 254, 255, 256, 273, 274
275, 276, 277, 278, 279, 280, 281, 282, 283, 284
285, 286, 287, 288, 291, 292, 309, 310, 311, 312
313, 314, 315, 316, 317, 318, 319, 320, 321, 322
323, 324, 341, 342, 343, 344, 345, 346, 347, 348
349, 350, 351, 352, 353, 354, 355, 356, 373, 374
375, 376, 377, 378, 379, 380, 381, 382, 383, 384
385, 386, 387, 388, 405, 406, 407, 408, 409, 410
** ... 2580 like lines cut
*ELEMENT, TYPE=T3D2, ELSET=E_TRUSS
1, 44, 76
2, 144, 188
3, 220, 256
4, 288, 324
5, 356, 388
6, 420, 464
7, 496, 532
8, 564, 600
9, 632, 664
10, 696, 728
11, 760, 824
12, 856, 892
13, 944, 976
14, 1008, 1040
15, 1072, 1104
16, 1136, 1180
17, 1212, 1248
18, 1280, 1316
19, 1348, 1380
20, 1412, 1444
** ... 25557 like lines cut
*ELEMENT, TYPE=B31, ELSET=E_BEAM
25300, 80, 79
25301, 84, 83
25302, 88, 87
25303, 137, 136
25304, 181, 180
25305, 224, 223
25306, 281, 280
25307, 292, 291
25308, 349, 348
25309, 413, 412
25310, 489, 488
25311, 500, 499
25312, 525, 524
25313, 568, 567
25314, 593, 592
25315, 657, 656
25316, 721, 720
25317, 792, 791
25318, 817, 816
25319, 860, 859
** ... 4720 like lines cut
*ELSET, ELSET=E_FLOOR_ROPE
1, 2, 3, 4, 5, 6, 7, 8, 9, 10
11, 12, 13, 14, 15, 16, 17, 18, 19, 20
21, 22, 23, 24, 25, 26, 27, 28, 29, 30
31, 32, 33, 34, 35, 36, 37, 38, 39, 40
41, 42, 43, 44, 45, 46, 47, 48, 49, 50
51, 52, 53, 54, 55, 56, 57, 58, 59, 60
61, 62, 63, 64, 65, 66, 67, 68, 69, 70
71, 72, 73, 74, 75, 76, 77, 78, 79, 80
81, 82, 83, 84, 85, 86, 87, 88, 89, 90
91, 92, 93, 94, 95, 96, 97, 98, 99, 100
101, 102, 103, 104, 105, 106, 107, 108, 109, 110
111, 112, 113, 114, 115, 116, 117, 118, 119, 120
121, 122, 123, 124, 125, 126, 127, 128, 129, 130
131, 132, 133, 134, 135, 136, 137, 138, 139, 140
141, 142, 143, 144, 145, 146, 147, 148, 149, 150
151, 152, 153, 154, 155, 156, 157, 158, 159, 160
161, 162, 163, 164, 165, 166, 167, 168, 169, 170
171, 172, 173, 174, 175, 176, 177, 178, 179, 180
181, 182, 183, 184, 185, 186, 187, 188, 189, 190
191, 192, 193, 194, 195, 196, 197, 198, 199, 200
** ... 2510 like lines cut
*ELSET, ELSET=E_PORTAL_ROPE
30019, 30020, 30021, 30022, 30023, 30024, 30025, 30026, 30027, 30028
30029, 30030, 30031, 30032, 30033, 30034, 30035, 30036, 30037, 30038
30039, 30040, 30041, 30042, 30043, 30044, 30045, 30046, 30047, 30048
30049, 30050, 30051, 30052, 30053, 30054, 30055, 30056, 30057, 30058
30059, 30060, 30061, 30062, 30063, 30064, 30065, 30066, 30067, 30068
30069, 30070, 30071, 30072, 30073, 30074, 30075, 30076, 30077, 30078
30079, 30080, 30081, 30082, 30083, 30084, 30085, 30086, 30087, 30088
30089, 30090, 30091, 30092, 30093, 30094, 30095, 30096, 30097, 30098
30099, 30100, 30101, 30102, 30103, 30104, 30105, 30106, 30107, 30108
30109, 30110, 30111, 30112, 30113, 30114, 30115, 30116, 30117, 30118
30119, 30120, 30121, 30122, 30123, 30124, 30125, 30126, 30127, 30128
30129, 30130, 30131, 30132, 30133, 30134, 30135, 30136, 30137, 30138
30139, 30140, 30141, 30142, 30143, 30144, 30145, 30146, 30147, 30148
30149, 30150, 30151, 30152, 30153, 30154, 30155, 30156, 30157, 30158
30159, 30160, 30161, 30162, 30163, 30164, 30165, 30166, 30167, 30168
30169, 30170, 30171, 30172, 30173, 30174, 30175, 30176, 30177, 30178
30179, 30180, 30181, 30182, 30183, 30184, 30185, 30186, 30187, 30188
30189, 30190, 30191, 30192, 30193, 30194, 30195, 30196, 30197, 30198
30199, 30200, 30201, 30202, 30203, 30204, 30205, 30206, 30207, 30208
30209, 30210, 30211, 30212, 30213, 30214, 30215, 30216, 30217, 30218
30219, 30220, 30221, 30222, 30223, 30224, 30225, 30226, 30227, 30228
30229, 30230, 30231, 30232, 30233, 30234, 30235, 30236, 30237, 30238
30239, 30240, 30241, 30242, 30243, 30244, 30245
*ELSET, ELSET=E_LONGITUDINAL_OTHER
30246, 30247, 30248, 30249, 30250, 30251, 30252, 30253, 30254, 30255
30256, 30257, 30258, 30259, 30260, 30261, 30262
*ELSET, ELSET=E_HANDRAIL_ROPE
30263, 30264, 30265, 30266, 30267, 30268, 30269, 30270, 30271, 30272
30273, 30274, 30275, 30276, 30277, 30278, 30279, 30280, 30281, 30282
30283, 30284, 30285, 30286, 30287, 30288, 30289, 30290, 30291, 30292
30293, 30294, 30295, 30296
*ELSET, ELSET=E_PORTAL_OR_BEAM
25300, 25301, 25302, 25303, 25304, 25305, 25306, 25307, 25308, 25309
25310, 25311, 25312, 25313, 25314, 25315, 25316, 25317, 25318, 25319
25320, 25321, 25322, 25323, 25324, 25325, 25326, 25327, 25328, 25329
25330, 25331, 25332, 25333, 25334, 25335, 25336, 25337, 25338, 25339
25340, 25341, 25342, 25343, 25344, 25345, 25346, 25347, 25348, 25349
25350, 25351, 25352, 25353, 25354, 25355, 25356, 25357, 25358, 25359
25360, 25361, 25362, 25363, 25364, 25365, 25366, 25367, 25368, 25369
25370, 25371, 25372, 25373, 25374, 25375, 25376, 25377, 25378, 25379
25380, 25381, 25382, 25383, 25384, 25385, 25386, 25387, 25388, 25389
25390, 25391, 25392, 25393, 25394, 25395, 25396, 25397, 25398, 25399
25400, 25401, 25402, 25403, 25404, 25405, 25406, 25407, 25408, 25409
25410, 25411, 25412, 25413, 25414, 25415, 25416, 25417, 25418, 25419
25420, 25421, 25422, 25423, 25424, 25425, 25426, 25427, 25428, 25429
25430, 25431, 25432, 25433, 25434, 25435, 25436, 25437, 25438, 25439
25440, 25441, 25442, 25443, 25444, 25445, 25446, 25447, 25448, 25449
25450, 25451, 25452, 25453, 25454, 25455, 25456, 25457, 25458, 25459
25460, 25461, 25462, 25463, 25464, 25465, 25466, 25467, 25468, 25469
25470, 25471, 25472, 25473, 25474, 25475, 25476, 25477, 25478, 25479
25480, 25481, 25482, 25483, 25484, 25485, 25486, 25487, 25488, 25489
25490, 25491, 25492, 25493, 25494, 25495, 25496, 25497, 25498, 25499
** ... 452 like lines cut
*ELSET, ELSET=E_CROSS_PASSAGE
30297, 30298, 30299, 30300, 30301, 30302, 30303, 30304, 30305, 30306
30307, 30308, 30309, 30310, 30311, 30312, 30313, 30314, 30315, 30316
30317
*MATERIAL, NAME=MAT-ROPE-FLOOR
*ELASTIC
1.200000e+11, 0.3
*DENSITY
8595.992631
*MATERIAL, NAME=MAT-ROPE-PORTAL
*ELASTIC
1.200000e+11, 0.3
*DENSITY
8595.992631
*MATERIAL, NAME=MAT-ROPE-HAND-U
*ELASTIC
1.200000e+11, 0.3
*DENSITY
5324.813528
*MATERIAL, NAME=MAT-ROPE-HAND-L
*ELASTIC
1.200000e+11, 0.3
*DENSITY
5315.775099
*MATERIAL, NAME=MAT-STEEL
*ELASTIC
2.060000e+11, 0.3
*DENSITY
7850.000000
*SOLID SECTION, ELSET=E_FLOOR_ROPE, MATERIAL=MAT-ROPE-FLOOR
1.40042000e-03
*SOLID SECTION, ELSET=E_PORTAL_ROPE, MATERIAL=MAT-ROPE-PORTAL
1.40042000e-03
*SOLID SECTION, ELSET=E_LONGITUDINAL_OTHER, MATERIAL=MAT-ROPE-HAND-L
3.14159265e-04
*SOLID SECTION, ELSET=E_HANDRAIL_ROPE, MATERIAL=MAT-ROPE-HAND-U
1.01787602e-03
*BEAM SECTION, ELSET=E_BEAM, MATERIAL=MAT-STEEL, SECTION=RECT
0.160, 0.160
0.0, 0.0, 1.0
** BOUNDARY: UX,UY,UZ. Floor-rope anchors and portal-rope anchors are separate cards.
** convention: x = chainage - K16+876.000
*BOUNDARY
N_FLOOR_ANCHOR, 1, 3
*BOUNDARY
N_PORTAL_ANCHOR, 1, 3
*BOUNDARY
N_SUPPORT_SADDLE_ENDS, 1, 3
** INITIAL STRESS from independent sag formula H=wL^2/(8h), h=227.300 m
** H_floor_deck=7.953515e+06 N  sigma_floor=3.549611e+08 Pa
*INITIAL CONDITIONS, TYPE=STRESS
E_FLOOR_ROPE, 3.549611e+08
E_PORTAL_ROPE, 2.426295e+08
*STEP, NLGEOM
LC-DEAD-PRESTRESS
*STATIC
*DLOAD
E_TRUSS, GRAV, 9.806650, 0., 0., -1.
E_BEAM, GRAV, 9.806650, 0., 0., -1.
** extra floor-system dead beyond rope self-weight, downward
*CLOAD
1, 3, -1.484343e+03
2, 3, -1.484343e+03
3, 3, -1.484343e+03
4, 3, -1.484343e+03
5, 3, -1.484343e+03
6, 3, -1.484343e+03
7, 3, -1.484343e+03
8, 3, -1.484343e+03
9, 3, -1.484343e+03
10, 3, -1.484343e+03
11, 3, -1.484343e+03
12, 3, -1.484343e+03
13, 3, -9.423015e+02
14, 3, -9.423015e+02
15, 3, -9.423015e+02
16, 3, -9.423015e+02
17, 3, -9.423015e+02
18, 3, -9.423015e+02
19, 3, -9.423015e+02
20, 3, -9.423015e+02
** ... 46499 like lines cut
*NODE FILE
U
*EL FILE
S
*END STEP
*STEP, NLGEOM
LC-PERSONNEL-UNIFORM
*STATIC
*DLOAD
E_TRUSS, GRAV, 9.806650, 0., 0., -1.
E_BEAM, GRAV, 9.806650, 0., 0., -1.
** personnel 1.5 kPa x 5.6 m; ASSUMP construction walkway 1.5 kPa on 5.60 m effective width
*CLOAD
1, 3, -1.569894e+04
2, 3, -1.569894e+04
3, 3, -1.569894e+04
4, 3, -1.569894e+04
5, 3, -1.569894e+04
6, 3, -1.569894e+04
7, 3, -1.569894e+04
8, 3, -1.569894e+04
9, 3, -1.569894e+04
10, 3, -1.569894e+04
11, 3, -1.569894e+04
12, 3, -1.569894e+04
13, 3, -9.966112e+03
14, 3, -9.966112e+03
15, 3, -9.966112e+03
16, 3, -9.966112e+03
17, 3, -9.966112e+03
18, 3, -9.966112e+03
19, 3, -9.966112e+03
20, 3, -9.966112e+03
** ... 46499 like lines cut
*NODE FILE
U
*EL FILE
S
*END STEP
*STEP, NLGEOM
LC-WIND-Y
*STATIC
*DLOAD
E_TRUSS, GRAV, 9.806650, 0., 0., -1.
E_BEAM, GRAV, 9.806650, 0., 0., -1.
** ASSUMP construction wind 0.50 kN/m per deck, +Y
*CLOAD
1, 3, -1.484343e+03
2, 3, -1.484343e+03
3, 3, -1.484343e+03
4, 3, -1.484343e+03
5, 3, -1.484343e+03
6, 3, -1.484343e+03
7, 3, -1.484343e+03
8, 3, -1.484343e+03
9, 3, -1.484343e+03
10, 3, -1.484343e+03
11, 3, -1.484343e+03
12, 3, -1.484343e+03
13, 3, -9.423015e+02
14, 3, -9.423015e+02
15, 3, -9.423015e+02
16, 3, -9.423015e+02
17, 3, -9.423015e+02
18, 3, -9.423015e+02
19, 3, -9.423015e+02
20, 3, -9.423015e+02
** ... 46499 like lines cut
*CLOAD
1, 2, 8.461069e+02
2, 2, 8.461069e+02
3, 2, 8.461069e+02
4, 2, 8.461069e+02
5, 2, 8.461069e+02
6, 2, 8.461069e+02
7, 2, 8.461069e+02
8, 2, 8.461069e+02
9, 2, 8.461069e+02
10, 2, 8.461069e+02
11, 2, 8.461069e+02
12, 2, 8.461069e+02
13, 2, 5.371316e+02
14, 2, 5.371316e+02
15, 2, 5.371316e+02
16, 2, 5.371316e+02
17, 2, 5.371316e+02
18, 2, 5.371316e+02
19, 2, 5.371316e+02
20, 2, 5.371316e+02
** ... 46499 like lines cut
*NODE FILE
U
*EL FILE
S
*END STEP
** LC-FREQ after last static: linearization uses the last NLGEOM state.
** Dedicated dead+freq deck is written separately when run_pipeline asks.
*STEP
LC-FREQ
*FREQUENCY
20
*NODE FILE
U
*END STEP
