/CLEAR,NOSTART ! 清空数据库但不重启 MAPDL，确保本方向算例不继承任何全桥模型状态。
/FILNAME,cw_u01_02_0715t101428_c8 ! 使用准备器注入的唯一作业名，使命令行作业身份与数据库前缀完全一致。
/TITLE,U01 BEAM188 ORIENTATION BIDIRECTIONAL ! 标题说明本算例只验证 H175 正确方向节点下的双向弯曲。
/PREP7 ! 进入前处理器，以建立两根彼此隔离的两单元简支梁。
ET,1,BEAM188 ! 定义 1 号单元类型为 BEAM188，与门架下横梁的正式单元族一致。
KEYOPT,1,3,3 ! 使用三次插值，使两单元简支梁能够准确表达中点集中力弯曲曲率。
MP,EX,1,206000 ! 定义钢材弹性模量为 206000 N/mm^2，该值只用于解析梁验证而不修改项目材料。
MP,PRXY,1,0.31 ! 定义泊松比为 0.31，使横向剪切刚度具有明确的各向同性剪切模量。
SECTYPE,61,BEAM,ASEC,H175RAW ! 定义 H175 任意截面，并保持任务书冻结的 Iyy 与 Izz 原始次序。
SECDATA,4997.5,9830899.739583334,0,28164706.458333332,66066802083.333336,176798.95833333334,0,0,0,0,175,175,0.6712958043168660,0.2363842696133852 ! 输入 A、原始 Iyy/Izz、Iw、J 与旋转映射后的 TSxz/TSxy，禁止用交换惯性矩修轴。
LSPAN=30000 ! 将简支梁总跨长设为 30000 mm，使 Timoshenko 剪切项低于 0.2% 梁弯曲门槛。
HALFL=LSPAN/2 ! 计算 15000 mm 半跨，用于把中点布置在全局原点并保持两单元等长。
PLOAD=1 ! 将中点集中力设为 1 N，使响应保持线弹性且位移仍有足够数值分辨率。
N,1,0,HALFL,0 ! 建立第一根梁的 I 端节点，位于全局 Y 正半跨位置。
N,2,0,0,0 ! 建立第一根梁的中点节点，作为 local-y 方向集中力和位移读取点。
N,3,0,-HALFL,0 ! 建立第一根梁的 J 端节点，使两个梁单元轴向均为全局 -Y。
N,101,-100,HALFL,0 ! 在 I 端沿全局 -X 放置方向节点，按任务书算法定义 local-z=-X。
N,102,-100,0,0 ! 在中点沿全局 -X 放置第二单元方向节点，保持两单元截面滚转连续。
TYPE,1 ! 激活 BEAM188 类型，为第一根简支梁创建两个结构单元。
MAT,1 ! 激活 1 号钢材材料，使梁刚度与解析式使用同一个 E。
SECNUM,61 ! 激活未交换惯性矩的 H175 ASEC 截面。
EN,1,1,2,101 ! 创建第一根梁左半单元，其 I→J=-Y 且 I→K=-X。
EN,2,2,3,102 ! 创建第一根梁右半单元，其局部 y 继续严格指向全局 +Z。
D,1,UX,0 ! 固定第一根梁左支点全局 X 位移，消除横向刚体平移。
D,1,UY,0 ! 固定第一根梁左支点轴向 Y 位移，消除轴向刚体平移。
D,1,UZ,0 ! 固定第一根梁左支点全局 Z 位移，形成简支竖向支承。
D,1,ROTY,0 ! 固定第一根梁左支点绕梁轴 Y 的刚体滚转，不约束两个弯曲平面的支点转角。
D,3,UX,0 ! 固定第一根梁右支点全局 X 位移，形成另一横向简支约束。
D,3,UZ,0 ! 固定第一根梁右支点全局 Z 位移，同时保留轴向伸缩自由度。
F,2,FZ,PLOAD ! 在中点沿全局 +Z 施力；该方向就是目标 local-y，并应使用强轴 Izz。
N,11,1000,HALFL,0 ! 建立第二根梁 I 端，并沿全局 X 平移 1000 mm 防止两模型节点重合。
N,12,1000,0,0 ! 建立第二根梁中点，作为 local-z 方向集中力和位移读取点。
N,13,1000,-HALFL,0 ! 建立第二根梁 J 端，并保持单元轴向为全局 -Y。
N,111,900,HALFL,0 ! 在第二根梁 I 端沿全局 -X 放置方向节点，继续定义 local-z=-X。
N,112,900,0,0 ! 在第二根梁中点沿全局 -X 放置方向节点，保持截面滚转不变。
TYPE,1 ! 继续使用同一 BEAM188 类型，以隔离加载方向而非单元定义差异。
MAT,1 ! 继续使用同一钢材材料，以保证双向解析比较只受惯性矩影响。
SECNUM,61 ! 继续使用原始 Iyy/Izz 的同一 H175 截面，禁止为第二方向换截面数值。
EN,11,11,12,111 ! 创建第二根梁左半单元，并用 -X 方向节点定义 local-z。
EN,12,12,13,112 ! 创建第二根梁右半单元，使双向验证共享相同局部轴算法。
D,11,UX,0 ! 固定第二根梁左支点全局 X 位移，形成 local-z 方向简支支承。
D,11,UY,0 ! 固定第二根梁左支点轴向 Y 位移，消除轴向刚体运动。
D,11,UZ,0 ! 固定第二根梁左支点全局 Z 位移，消除非目标横向刚体运动。
D,11,ROTY,0 ! 固定第二根梁左支点绕梁轴 Y 的刚体滚转，不改变 local-z 弯曲柔度。
D,13,UX,0 ! 固定第二根梁右支点全局 X 位移，同时保留轴向 Y 伸缩。
D,13,UZ,0 ! 固定第二根梁右支点全局 Z 位移，避免非目标平面机构。
F,12,FX,-PLOAD ! 在中点沿全局 -X 施力；该方向就是 local-z，并应使用弱轴 Iyy。
FINISH ! 结束前处理，确保几何、截面、方向节点、边界和两项载荷均已封板。
/SOLU ! 进入求解器，执行与 Euler-Bernoulli 解析式可直接比较的线弹性静力分析。
ANTYPE,STATIC ! 选择静力分析，本算例不启用几何非线性或预应力以免混入额外效应。
OUTRES,ALL,LAST ! 只保存唯一末结果集，避免多余结果集影响后处理身份。
SOLVE ! 同时求解两根互不连接的简支梁，并得到两个中点位移。
FINISH ! 退出求解器，准备读取位移并计算解析目标。
/POST1 ! 进入通用后处理器，以读取唯一静力结果集中的中点位移。
SET,LAST ! 显式选择最后结果集，禁止依赖隐式当前结果集。
*GET,UYMAP,NODE,2,U,Z ! 读取第一根梁中点全局 Z 位移，该值对应 local-y 强轴弯曲。
*GET,UZMAP,NODE,12,U,X ! 读取第二根梁中点全局 X 位移，其绝对值对应 local-z 弱轴弯曲。
THEORYY=PLOAD*LSPAN**3/(48*206000*28164706.458333332) ! 用 PL^3/(48EIzz) 计算 local-y 中点集中力解析位移。
THEORYZ=PLOAD*LSPAN**3/(48*206000*9830899.739583334) ! 用 PL^3/(48EIyy) 计算 local-z 中点集中力解析位移。
*CFOPEN,u01_beam_axis_result,csv ! 打开四列 CSV，列序由相邻说明文件解释且文件名在隔离目录内唯一。
*VWRITE,ABS(UYMAP),THEORYY,ABS(UZMAP),THEORYZ ! 写出两个 MAPDL 位移绝对值及其对应解析值；紧随的纯格式行由本注释共同说明。
(F24.15,',',F24.15,',',F24.15,',',F24.15)
*CFCLOS ! 关闭结果 CSV，确保四个双精度数值完整写入磁盘。
FINISH ! 退出后处理器，完成方向节点与双向弯曲验证。
/EXIT,NOSAVE ! 正常退出且不保存数据库，避免小算例 DB 被误认为全桥基态。
