*HEADING
Loaded rigid arm: direct force and moment
*NODE,NSET=ALL
1,0.00000000000e+00,0.00000000000e+00,0.00000000000e+00
2,0.00000000000e+00,2.00000000000e+00,0.00000000000e+00
3,0.00000000000e+00,2.50000000000e-01,0.00000000000e+00
4,0.00000000000e+00,5.00000000000e-01,0.00000000000e+00
5,0.00000000000e+00,7.50000000000e-01,0.00000000000e+00
6,0.00000000000e+00,1.00000000000e+00,0.00000000000e+00
7,0.00000000000e+00,1.25000000000e+00,0.00000000000e+00
8,0.00000000000e+00,1.50000000000e+00,0.00000000000e+00
9,0.00000000000e+00,1.75000000000e+00,0.00000000000e+00
10,0.00000000000e+00,1.25000000000e-01,0.00000000000e+00
11,0.00000000000e+00,3.75000000000e-01,0.00000000000e+00
12,0.00000000000e+00,6.25000000000e-01,0.00000000000e+00
13,0.00000000000e+00,8.75000000000e-01,0.00000000000e+00
14,0.00000000000e+00,1.12500000000e+00,0.00000000000e+00
15,0.00000000000e+00,1.37500000000e+00,0.00000000000e+00
16,0.00000000000e+00,1.62500000000e+00,0.00000000000e+00
17,0.00000000000e+00,1.87500000000e+00,0.00000000000e+00
*MATERIAL,NAME=STEEL
*ELASTIC
2.06000000000e+11,0.31
*DENSITY
7850.0
*ELEMENT,TYPE=B32R,ELSET=B0
1,1,10,3
2,3,11,4
3,4,12,5
4,5,13,6
5,6,14,7
6,7,15,8
7,8,16,9
8,9,17,2
*BEAM SECTION,ELSET=B0,MATERIAL=STEEL,SECTION=BOX
1.60000000000e-01,1.60000000000e-01,4.00000000000e-03,4.00000000000e-03,4.00000000000e-03,4.00000000000e-03
1.00000000000e+00,0.00000000000e+00,0.00000000000e+00
*ELSET,ELSET=STEELALL,GENERATE
1,8,1
*BOUNDARY
1,1,1
1,2,2
1,3,3
1,4,4
1,5,5
1,6,6
*NSET,NSET=OBS
1,2,3,4,5,6,7,8,9,10,11,12
13,14,15,16,17
*STEP,NLGEOM,INC=100
*STATIC
1.,1.,1.e-8,1.
*CLOAD
2,3,-1.00000000000e+02
2,4,-3.50000000000e+01
*NODE PRINT,NSET=OBS
U,RF
*NODE FILE,OUTPUT=2D
U
*END STEP
