** Stock T3D2 coupon. apt calculix-ccx can run this.
*HEADING
T3D2 axial coupon
*NODE
1, 0.0, 0.0, 0.0
2, 1000.0, 0.0, 0.0
*ELEMENT, TYPE=T3D2, ELSET=E_BAR
1, 1, 2
*MATERIAL, NAME=STEEL
*ELASTIC
200000.0, 0.3
*DENSITY
7.85e-9
*SOLID SECTION, ELSET=E_BAR, MATERIAL=STEEL
5.0
*BOUNDARY
1, 1, 3
*STEP
*STATIC
*CLOAD
2, 1, 100.0
*NODE PRINT, NSET=NALL
U, RF
*END STEP
