*HEADING
Corrected floor connection causal probe
*NODE,NSET=ALL
1,0.00000000000e+00,-2.76000000000e+00,5.00000000000e-02
2,0.00000000000e+00,-2.41500000000e+00,5.00000000000e-02
3,0.00000000000e+00,-2.58750000000e+00,5.00000000000e-02
4,0.00000000000e+00,-2.07000000000e+00,5.00000000000e-02
5,0.00000000000e+00,-2.24250000000e+00,5.00000000000e-02
6,0.00000000000e+00,-1.72500000000e+00,5.00000000000e-02
7,0.00000000000e+00,-1.89750000000e+00,5.00000000000e-02
8,0.00000000000e+00,-1.38000000000e+00,5.00000000000e-02
9,0.00000000000e+00,-1.55250000000e+00,5.00000000000e-02
10,0.00000000000e+00,-1.03500000000e+00,5.00000000000e-02
11,0.00000000000e+00,-1.20750000000e+00,5.00000000000e-02
12,0.00000000000e+00,-6.90000000000e-01,5.00000000000e-02
13,0.00000000000e+00,-8.62500000000e-01,5.00000000000e-02
14,0.00000000000e+00,-3.45000000000e-01,5.00000000000e-02
15,0.00000000000e+00,-5.17500000000e-01,5.00000000000e-02
16,0.00000000000e+00,0.00000000000e+00,5.00000000000e-02
17,0.00000000000e+00,-1.72500000000e-01,5.00000000000e-02
18,0.00000000000e+00,3.45000000000e-01,5.00000000000e-02
19,0.00000000000e+00,1.72500000000e-01,5.00000000000e-02
20,0.00000000000e+00,6.90000000000e-01,5.00000000000e-02
** ... 96 like lines cut
*MATERIAL,NAME=STEEL
*ELASTIC
2.06000000000e+11,0.31
*DENSITY
7850.0
*ELEMENT,TYPE=B32R,ELSET=B0
1,1,3,2
2,2,5,4
3,4,7,6
4,6,9,8
5,8,11,10
6,10,13,12
7,12,15,14
8,14,17,16
9,16,19,18
10,18,21,20
11,20,23,22
12,22,25,24
13,24,27,26
14,26,29,28
15,28,31,30
16,30,33,32
*BEAM SECTION,ELSET=B0,MATERIAL=STEEL,SECTION=BOX
5.00000000000e-02,5.00000000000e-02,4.00000000000e-03,4.00000000000e-03,4.00000000000e-03,4.00000000000e-03
1.00000000000e+00,0.00000000000e+00,0.00000000000e+00
*ELEMENT,TYPE=SPRINGA,ELSET=C0
17,37,34
19,42,39
21,47,44
23,52,49
25,57,54
27,62,59
29,67,64
31,72,69
33,77,74
35,82,79
37,87,84
39,92,89
41,97,94
43,102,99
45,107,104
47,112,109
*SPRING,ELSET=C0,NONLINEAR
0.00000000000e+00,-1.19384098312e-01
0.00000000000e+00,-1.91962997658e-02
6.40875000000e+05,0.00000000000e+00
3.98567874742e+06,1.00187798546e-01
*ELEMENT,TYPE=SPRINGA,ELSET=C1
18,34,38
20,39,43
22,44,48
24,49,53
26,54,58
28,59,63
30,64,68
32,69,73
34,74,78
36,79,83
38,84,88
40,89,93
42,94,98
44,99,103
46,104,108
48,109,113
*SPRING,ELSET=C1,NONLINEAR
0.00000000000e+00,-9.51395210663e-02
0.00000000000e+00,-1.52975308323e-02
6.40856250000e+05,0.00000000000e+00
3.98565999740e+06,7.98419902340e-02
*ELSET,ELSET=STEELALL,GENERATE
1,16,1
*NSET,NSET=RB0
34
*RIGID BODY,NSET=RB0,REF NODE=35,ROT NODE=36
*NSET,NSET=RB1
39
*RIGID BODY,NSET=RB1,REF NODE=40,ROT NODE=41
*NSET,NSET=RB2
44
*RIGID BODY,NSET=RB2,REF NODE=45,ROT NODE=46
*NSET,NSET=RB3
49
*RIGID BODY,NSET=RB3,REF NODE=50,ROT NODE=51
*NSET,NSET=RB4
54
*RIGID BODY,NSET=RB4,REF NODE=55,ROT NODE=56
*NSET,NSET=RB5
59
*RIGID BODY,NSET=RB5,REF NODE=60,ROT NODE=61
*NSET,NSET=RB6
64
*RIGID BODY,NSET=RB6,REF NODE=65,ROT NODE=66
*NSET,NSET=RB7
69
*RIGID BODY,NSET=RB7,REF NODE=70,ROT NODE=71
*NSET,NSET=RB8
74
*RIGID BODY,NSET=RB8,REF NODE=75,ROT NODE=76
*NSET,NSET=RB9
79
*RIGID BODY,NSET=RB9,REF NODE=80,ROT NODE=81
*NSET,NSET=RB10
84
*RIGID BODY,NSET=RB10,REF NODE=85,ROT NODE=86
*NSET,NSET=RB11
89
*RIGID BODY,NSET=RB11,REF NODE=90,ROT NODE=91
*NSET,NSET=RB12
94
*RIGID BODY,NSET=RB12,REF NODE=95,ROT NODE=96
*NSET,NSET=RB13
99
*RIGID BODY,NSET=RB13,REF NODE=100,ROT NODE=101
*NSET,NSET=RB14
104
*RIGID BODY,NSET=RB14,REF NODE=105,ROT NODE=106
*NSET,NSET=RB15
109
*RIGID BODY,NSET=RB15,REF NODE=110,ROT NODE=111
*NSET,NSET=RB16
116
*RIGID BODY,NSET=RB16,REF NODE=114,ROT NODE=115
*EQUATION
4
35,1,1.00000000000e+00,1,1,-3.53497164461e-01,3,1,-7.71266540643e-01
2,1,1.24763705104e-01
4
36,1,1.00000000000e+00,1,4,-3.53497164461e-01,3,4,-7.71266540643e-01
2,4,1.24763705104e-01
4
35,2,1.00000000000e+00,1,2,-3.53497164461e-01,3,2,-7.71266540643e-01
2,2,1.24763705104e-01
4
36,2,1.00000000000e+00,1,5,-3.53497164461e-01,3,5,-7.71266540643e-01
2,5,1.24763705104e-01
4
35,3,1.00000000000e+00,1,3,-3.53497164461e-01,3,3,-7.71266540643e-01
2,3,1.24763705104e-01
4
36,3,1.00000000000e+00,1,6,-3.53497164461e-01,3,6,-7.71266540643e-01
2,6,1.24763705104e-01
4
40,1,1.00000000000e+00,2,1,-9.56941818946e-01,5,1,-5.71308548624e-02
** ... 280 like lines cut
*BOUNDARY
37,1,1
37,2,2
37,3,3
38,1,1
38,2,2
38,3,3
42,1,1
42,2,2
42,3,3
43,1,1
43,2,2
43,3,3
47,1,1
47,2,2
47,3,3
48,1,1
48,2,2
48,3,3
52,1,1
52,2,2
** ... 76 like lines cut
*NSET,NSET=OBS
1,2,3,4,5,6,7,8,9,10,11,12
13,14,15,16,17,18,19,20,21,22,23,24
25,26,27,28,29,30,31,32,33,34,35,36
37,38,39,40,41,42,43,44,45,46,47,48
49,50,51,52,53,54,55,56,57,58,59,60
61,62,63,64,65,66,67,68,69,70,71,72
73,74,75,76,77,78,79,80,81,82,83,84
85,86,87,88,89,90,91,92,93,94,95,96
97,98,99,100,101,102,103,104,105,106,107,108
109,110,111,112,113,114,115,116
*STEP,NLGEOM,INC=100
*STATIC
1.,1.,1.e-8,1.
*DLOAD
STEELALL,GRAV,9.80600000000e+00,0.,0.,-1.
*CLOAD
*NODE PRINT,NSET=OBS
U,RF
*NODE FILE,OUTPUT=2D
U
*END STEP
