*HEADING
Corrected floor connection causal probe
*NODE,NSET=ALL
1,0.00000000000e+00,-2.76000000000e+00,5.00000000000e-02
2,0.00000000000e+00,-2.07000000000e+00,5.00000000000e-02
3,0.00000000000e+00,-2.41500000000e+00,5.00000000000e-02
4,0.00000000000e+00,-1.38000000000e+00,5.00000000000e-02
5,0.00000000000e+00,-1.72500000000e+00,5.00000000000e-02
6,0.00000000000e+00,-6.90000000000e-01,5.00000000000e-02
7,0.00000000000e+00,-1.03500000000e+00,5.00000000000e-02
8,0.00000000000e+00,0.00000000000e+00,5.00000000000e-02
9,0.00000000000e+00,-3.45000000000e-01,5.00000000000e-02
10,0.00000000000e+00,6.90000000000e-01,5.00000000000e-02
11,0.00000000000e+00,3.45000000000e-01,5.00000000000e-02
12,0.00000000000e+00,1.38000000000e+00,5.00000000000e-02
13,0.00000000000e+00,1.03500000000e+00,5.00000000000e-02
14,0.00000000000e+00,2.07000000000e+00,5.00000000000e-02
15,0.00000000000e+00,1.72500000000e+00,5.00000000000e-02
16,0.00000000000e+00,2.76000000000e+00,5.00000000000e-02
17,0.00000000000e+00,2.41500000000e+00,5.00000000000e-02
18,0.00000000000e+00,-2.67000000000e+00,0.00000000000e+00
19,0.00000000000e+00,-2.67000000000e+00,5.00000000000e-02
20,0.00000000000e+00,-2.67000000000e+00,5.00000000000e-02
** ... 80 like lines cut
*MATERIAL,NAME=STEEL
*ELASTIC
2.06000000000e+11,0.31
*DENSITY
7850.0
*ELEMENT,TYPE=B32R,ELSET=B0
1,1,3,2
2,2,5,4
3,4,7,6
4,6,9,8
5,8,11,10
6,10,13,12
7,12,15,14
8,14,17,16
*BEAM SECTION,ELSET=B0,MATERIAL=STEEL,SECTION=BOX
5.00000000000e-02,5.00000000000e-02,4.00000000000e-03,4.00000000000e-03,4.00000000000e-03,4.00000000000e-03
1.00000000000e+00,0.00000000000e+00,0.00000000000e+00
*ELEMENT,TYPE=SPRINGA,ELSET=C0
9,21,18
11,26,23
13,31,28
15,36,33
17,41,38
19,46,43
21,51,48
23,56,53
25,61,58
27,66,63
29,71,68
31,76,73
33,81,78
35,86,83
37,91,88
39,96,93
*SPRING,ELSET=C0,NONLINEAR
0.00000000000e+00,-1.19384098312e-01
0.00000000000e+00,-1.91962997658e-02
6.40875000000e+05,0.00000000000e+00
3.98567874742e+06,1.00187798546e-01
*ELEMENT,TYPE=SPRINGA,ELSET=C1
10,18,22
12,23,27
14,28,32
16,33,37
18,38,42
20,43,47
22,48,52
24,53,57
26,58,62
28,63,67
30,68,72
32,73,77
34,78,82
36,83,87
38,88,92
40,93,97
*SPRING,ELSET=C1,NONLINEAR
0.00000000000e+00,-9.51395210663e-02
0.00000000000e+00,-1.52975308323e-02
6.40856250000e+05,0.00000000000e+00
3.98565999740e+06,7.98419902340e-02
*ELSET,ELSET=STEELALL,GENERATE
1,8,1
*NSET,NSET=RB0
18
*RIGID BODY,NSET=RB0,REF NODE=19,ROT NODE=20
*NSET,NSET=RB1
23
*RIGID BODY,NSET=RB1,REF NODE=24,ROT NODE=25
*NSET,NSET=RB2
28
*RIGID BODY,NSET=RB2,REF NODE=29,ROT NODE=30
*NSET,NSET=RB3
33
*RIGID BODY,NSET=RB3,REF NODE=34,ROT NODE=35
*NSET,NSET=RB4
38
*RIGID BODY,NSET=RB4,REF NODE=39,ROT NODE=40
*NSET,NSET=RB5
43
*RIGID BODY,NSET=RB5,REF NODE=44,ROT NODE=45
*NSET,NSET=RB6
48
*RIGID BODY,NSET=RB6,REF NODE=49,ROT NODE=50
*NSET,NSET=RB7
53
*RIGID BODY,NSET=RB7,REF NODE=54,ROT NODE=55
*NSET,NSET=RB8
58
*RIGID BODY,NSET=RB8,REF NODE=59,ROT NODE=60
*NSET,NSET=RB9
63
*RIGID BODY,NSET=RB9,REF NODE=64,ROT NODE=65
*NSET,NSET=RB10
68
*RIGID BODY,NSET=RB10,REF NODE=69,ROT NODE=70
*NSET,NSET=RB11
73
*RIGID BODY,NSET=RB11,REF NODE=74,ROT NODE=75
*NSET,NSET=RB12
78
*RIGID BODY,NSET=RB12,REF NODE=79,ROT NODE=80
*NSET,NSET=RB13
83
*RIGID BODY,NSET=RB13,REF NODE=84,ROT NODE=85
*NSET,NSET=RB14
88
*RIGID BODY,NSET=RB14,REF NODE=89,ROT NODE=90
*NSET,NSET=RB15
93
*RIGID BODY,NSET=RB15,REF NODE=94,ROT NODE=95
*NSET,NSET=RB16
100
*RIGID BODY,NSET=RB16,REF NODE=98,ROT NODE=99
*EQUATION
4
19,1,1.00000000000e+00,1,1,-6.42722117202e-01,3,1,-4.53686200378e-01
2,1,9.64083175803e-02
4
20,1,1.00000000000e+00,1,4,-6.42722117202e-01,3,4,-4.53686200378e-01
2,4,9.64083175803e-02
4
19,2,1.00000000000e+00,1,2,-6.42722117202e-01,3,2,-4.53686200378e-01
2,2,9.64083175803e-02
4
20,2,1.00000000000e+00,1,5,-6.42722117202e-01,3,5,-4.53686200378e-01
2,5,9.64083175803e-02
4
19,3,1.00000000000e+00,1,3,-6.42722117202e-01,3,3,-4.53686200378e-01
2,3,9.64083175803e-02
4
20,3,1.00000000000e+00,1,6,-6.42722117202e-01,3,6,-4.53686200378e-01
2,6,9.64083175803e-02
4
24,1,1.00000000000e+00,1,1,7.14135685780e-03,3,1,-9.99789960092e-01
** ... 280 like lines cut
*BOUNDARY
21,1,1
21,2,2
21,3,3
22,1,1
22,2,2
22,3,3
26,1,1
26,2,2
26,3,3
27,1,1
27,2,2
27,3,3
31,1,1
31,2,2
31,3,3
32,1,1
32,2,2
32,3,3
36,1,1
36,2,2
** ... 76 like lines cut
*NSET,NSET=OBS
1,2,3,4,5,6,7,8,9,10,11,12
13,14,15,16,17,18,19,20,21,22,23,24
25,26,27,28,29,30,31,32,33,34,35,36
37,38,39,40,41,42,43,44,45,46,47,48
49,50,51,52,53,54,55,56,57,58,59,60
61,62,63,64,65,66,67,68,69,70,71,72
73,74,75,76,77,78,79,80,81,82,83,84
85,86,87,88,89,90,91,92,93,94,95,96
97,98,99,100
*STEP,NLGEOM,INC=100
*STATIC
1.,1.,1.e-8,1.
*DLOAD
STEELALL,GRAV,9.80600000000e+00,0.,0.,-1.
*CLOAD
*NODE PRINT,NSET=OBS
U,RF
*NODE FILE,OUTPUT=2D
U
*END STEP
