! MCT elements 728/729: north/south main-tower catwalk downpull equivalents.
! Each MCT 2-D equivalent is duplicated to the two physical catwalks.
/PREP7
KEYOPT,1,3,0
MP,EX,5,120000.000000
MP,PRXY,5,0.3
MP,DENS,5,0
R,50000,22298.691649500659,5.541207018279640E-04
R,50001,22298.691649500659,5.867945171703834E-04
N,90000,714504,21450,326522
N,90001,722209,21450,334645
D,90000,UY,0
D,90000,UX,0
D,90000,UZ,0
CP,60000,UY,90001,160,888,1616,2344,3072,3800,4528,5256,5984,6712,7440,8168,8896,9624,10352,11080
CP,60001,UX,90001,160,888,1616,2344,3072,3800,4528,5256,5984,6712,7440,8168,8896,9624,10352,11080
CP,60002,UZ,90001,160,888,1616,2344,3072,3800,4528,5256,5984,6712,7440,8168,8896,9624,10352,11080
TYPE,1
MAT,5
REAL,50000
EN,400000,90000,90001
N,90002,714504,-21450,326522
N,90003,722209,-21450,334645
D,90002,UY,0
D,90002,UX,0
D,90002,UZ,0
CP,60003,UY,90003,14178,14906,15634,16362,17090,17818,18546,19274,20002,20730,21458,22186,22914,23642,24370,25098
CP,60004,UX,90003,14178,14906,15634,16362,17090,17818,18546,19274,20002,20730,21458,22186,22914,23642,24370,25098
CP,60005,UZ,90003,14178,14906,15634,16362,17090,17818,18546,19274,20002,20730,21458,22186,22914,23642,24370,25098
TYPE,1
MAT,5
REAL,50000
EN,400001,90002,90003
N,90004,2995314,21450,326520
N,90005,2987609,21450,334537
D,90004,UY,0
D,90004,UX,0
D,90004,UZ,0
CP,60006,UY,90005,444,1172,1900,2628,3356,4084,4812,5540,6268,6996,7724,8452,9180,9908,10636,11364
CP,60007,UX,90005,444,1172,1900,2628,3356,4084,4812,5540,6268,6996,7724,8452,9180,9908,10636,11364
CP,60008,UZ,90005,444,1172,1900,2628,3356,4084,4812,5540,6268,6996,7724,8452,9180,9908,10636,11364
TYPE,1
MAT,5
REAL,50001
EN,400002,90004,90005
N,90006,2995314,-21450,326520
N,90007,2987609,-21450,334537
D,90006,UY,0
D,90006,UX,0
D,90006,UZ,0
CP,60009,UY,90007,14462,15190,15918,16646,17374,18102,18830,19558,20286,21014,21742,22470,23198,23926,24654,25382
CP,60010,UX,90007,14462,15190,15918,16646,17374,18102,18830,19558,20286,21014,21742,22470,23198,23926,24654,25382
CP,60011,UZ,90007,14462,15190,15918,16646,17374,18102,18830,19558,20286,21014,21742,22470,23198,23926,24654,25382
TYPE,1
MAT,5
REAL,50001
EN,400003,90006,90007
ALLSEL,ALL
FINISH
