*HEADING
Ordinary floor beam with current offset handrail mass
*NODE,NSET=ALL
1,0.00000000000e+00,-2.89000000000e+00,-7.50000000000e-02
2,0.00000000000e+00,-1.44500000000e+00,-7.50000000000e-02
3,0.00000000000e+00,-2.16750000000e+00,-7.50000000000e-02
4,0.00000000000e+00,0.00000000000e+00,-7.50000000000e-02
5,0.00000000000e+00,-7.22500000000e-01,-7.50000000000e-02
6,0.00000000000e+00,1.44500000000e+00,-7.50000000000e-02
7,0.00000000000e+00,7.22500000000e-01,-7.50000000000e-02
8,0.00000000000e+00,2.89000000000e+00,-7.50000000000e-02
9,0.00000000000e+00,2.16750000000e+00,-7.50000000000e-02
10,0.00000000000e+00,-2.67000000000e+00,0.00000000000e+00
11,0.00000000000e+00,-2.41000000000e+00,0.00000000000e+00
12,0.00000000000e+00,-2.15000000000e+00,0.00000000000e+00
13,0.00000000000e+00,-1.89000000000e+00,0.00000000000e+00
14,0.00000000000e+00,-1.63000000000e+00,0.00000000000e+00
15,0.00000000000e+00,-1.37000000000e+00,0.00000000000e+00
16,0.00000000000e+00,-1.11000000000e+00,0.00000000000e+00
17,0.00000000000e+00,-8.50000000000e-01,0.00000000000e+00
18,0.00000000000e+00,8.50000000000e-01,0.00000000000e+00
19,0.00000000000e+00,1.11000000000e+00,0.00000000000e+00
20,0.00000000000e+00,1.37000000000e+00,0.00000000000e+00
** ... 77 like lines cut
*MATERIAL,NAME=STEEL
*ELASTIC
2.06000000000e+11,0.31
*DENSITY
7850.0
*ELEMENT,TYPE=B32R,ELSET=B0
1,1,3,2
2,2,5,4
3,4,7,6
4,6,9,8
*BEAM SECTION,ELSET=B0,MATERIAL=STEEL,SECTION=BOX
1.00000000000e-01,1.00000000000e-01,4.00000000000e-03,4.00000000000e-03,4.00000000000e-03,4.00000000000e-03
1.00000000000e+00,0.00000000000e+00,0.00000000000e+00
*ELEMENT,TYPE=SPRINGA,ELSET=C0
5,66,10
7,68,11
9,70,12
11,72,13
13,74,14
15,76,15
17,78,16
19,80,17
21,82,18
23,84,19
25,86,20
27,88,21
29,90,22
31,92,23
33,94,24
35,96,25
*SPRING,ELSET=C0,NONLINEAR
0.00000000000e+00,-1.19384098312e-01
0.00000000000e+00,-1.91962997658e-02
6.40875000000e+05,0.00000000000e+00
3.98567874742e+06,1.00187798546e-01
*ELEMENT,TYPE=SPRINGA,ELSET=C1
6,10,67
8,11,69
10,12,71
12,13,73
14,14,75
16,15,77
18,16,79
20,17,81
22,18,83
24,19,85
26,20,87
28,21,89
30,22,91
32,23,93
34,24,95
36,25,97
*SPRING,ELSET=C1,NONLINEAR
0.00000000000e+00,-9.51395210663e-02
0.00000000000e+00,-1.52975308323e-02
6.40856250000e+05,0.00000000000e+00
3.98565999740e+06,7.98419902340e-02
*ELEMENT,TYPE=MASS,ELSET=M0
37,60
39,64
*MASS,ELSET=M0
1.62600000000e+01
*ELEMENT,TYPE=MASS,ELSET=M1
38,61
40,65
*MASS,ELSET=M1
2.77800000000e+01
*ELSET,ELSET=STEELALL,GENERATE
1,4,1
*NSET,NSET=RB0
10
*RIGID BODY,NSET=RB0,REF NODE=26,ROT NODE=27
*NSET,NSET=RB1
11
*RIGID BODY,NSET=RB1,REF NODE=28,ROT NODE=29
*NSET,NSET=RB2
12
*RIGID BODY,NSET=RB2,REF NODE=30,ROT NODE=31
*NSET,NSET=RB3
13
*RIGID BODY,NSET=RB3,REF NODE=32,ROT NODE=33
*NSET,NSET=RB4
14
*RIGID BODY,NSET=RB4,REF NODE=34,ROT NODE=35
*NSET,NSET=RB5
15
*RIGID BODY,NSET=RB5,REF NODE=36,ROT NODE=37
*NSET,NSET=RB6
16
*RIGID BODY,NSET=RB6,REF NODE=38,ROT NODE=39
*NSET,NSET=RB7
17
*RIGID BODY,NSET=RB7,REF NODE=40,ROT NODE=41
*NSET,NSET=RB8
18
*RIGID BODY,NSET=RB8,REF NODE=42,ROT NODE=43
*NSET,NSET=RB9
19
*RIGID BODY,NSET=RB9,REF NODE=44,ROT NODE=45
*NSET,NSET=RB10
20
*RIGID BODY,NSET=RB10,REF NODE=46,ROT NODE=47
*NSET,NSET=RB11
21
*RIGID BODY,NSET=RB11,REF NODE=48,ROT NODE=49
*NSET,NSET=RB12
22
*RIGID BODY,NSET=RB12,REF NODE=50,ROT NODE=51
*NSET,NSET=RB13
23
*RIGID BODY,NSET=RB13,REF NODE=52,ROT NODE=53
*NSET,NSET=RB14
24
*RIGID BODY,NSET=RB14,REF NODE=54,ROT NODE=55
*NSET,NSET=RB15
25
*RIGID BODY,NSET=RB15,REF NODE=56,ROT NODE=57
*NSET,NSET=RB16
60,61
*RIGID BODY,NSET=RB16,REF NODE=58,ROT NODE=59
*NSET,NSET=RB17
64,65
*RIGID BODY,NSET=RB17,REF NODE=62,ROT NODE=63
*EQUATION
4
26,1,1.00000000000e+00,1,1,-5.89612193341e-01,3,1,-5.16277343423e-01
2,1,1.05889536763e-01
4
27,1,1.00000000000e+00,1,4,-5.89612193341e-01,3,4,-5.16277343423e-01
2,4,1.05889536763e-01
4
26,2,1.00000000000e+00,1,2,-5.89612193341e-01,3,2,-5.16277343423e-01
2,2,1.05889536763e-01
4
27,2,1.00000000000e+00,1,5,-5.89612193341e-01,3,5,-5.16277343423e-01
2,5,1.05889536763e-01
4
26,3,1.00000000000e+00,1,3,-5.89612193341e-01,3,3,-5.16277343423e-01
2,3,1.05889536763e-01
4
27,3,1.00000000000e+00,1,6,-5.89612193341e-01,3,6,-5.16277343423e-01
2,6,1.05889536763e-01
4
28,1,1.00000000000e+00,1,1,-2.24147220460e-01,3,1,-8.87345697489e-01
** ... 304 like lines cut
*BOUNDARY
66,1,1
66,2,2
66,3,3
67,1,1
67,2,2
67,3,3
68,1,1
68,2,2
68,3,3
69,1,1
69,2,2
69,3,3
70,1,1
70,2,2
70,3,3
71,1,1
71,2,2
71,3,3
72,1,1
72,2,2
** ... 76 like lines cut
*NSET,NSET=OBS
1,2,3,4,5,6,7,8,9,10,11,12
13,14,15,16,17,18,19,20,21,22,23,24
25,26,27,28,29,30,31,32,33,34,35,36
37,38,39,40,41,42,43,44,45,46,47,48
49,50,51,52,53,54,55,56,57,58,59,60
61,62,63,64,65,66,67,68,69,70,71,72
73,74,75,76,77,78,79,80,81,82,83,84
85,86,87,88,89,90,91,92,93,94,95,96
97
*STEP,NLGEOM,INC=100
*STATIC
1.,1.,1.e-8,1.
*DLOAD
STEELALL,GRAV,9.80600000000e+00,0.,0.,-1.
*CLOAD
60,3,-1.59445560000e+02
61,3,-2.72410680000e+02
64,3,-1.59445560000e+02
65,3,-2.72410680000e+02
*NODE PRINT,NSET=OBS
U,RF
*NODE FILE,OUTPUT=2D
U
*END STEP
