*HEADING
DYN_ISO_MAIN_SLIDE_STATIC daughter of 974211b2; not a new main; not 00fc277e replace-card
parent loads = stacked P1 / P2-step1 恒载 (GRAV + 二期, no construction, no wind, no temperature)
units: CalculiX N, mm, s; density t/mm3; g=9806 mm/s2
IC format ccx_2.21_s7.76_element_ip_six_pk2_global
imported_TARGET_FREQ=false
not_a_scientific_claim=true
bc_family=UYFREE; omitted 010 migrate-plane UY=0; 111 and 011 retained
SLIDE_STATIC change K; extra BC in model definition; geom MAIN_SLIDE
*NODE
1, 852105, 0, 28152
2, 874000, 0, 54653.835
3, 874962, 0, 55823
4, 876000, 0, 56551.407
5, 879000, 0, 58658.669
6, 879888, 0, 59283
7, 881000, 0, 59628.331
8, 886000, 0, 61185.542
9, 891000, 0, 62781.367
10, 897000, 0, 64707.421
11, 900000, 0, 65674.728
12, 903000, 0, 66645.007
13, 909000, 0, 68594.235
14, 915000, 0, 70555.422
15, 918000, 0, 71540.304
16, 921000, 0, 72528.161
17, 927000, 0, 74514.469
18, 933000, 0, 76512.756
19, 936000, 0, 77516.195
20, 939000, 0, 78522.615
** ... 1105 like lines cut
*ELEMENT, TYPE=T3D2, ELSET=E_CABLE
1, 1, 2
2, 2, 3
3, 3, 4
4, 4, 5
5, 5, 6
6, 6, 7
7, 7, 8
8, 8, 9
9, 9, 10
10, 10, 11
11, 11, 12
12, 12, 13
13, 13, 14
14, 14, 15
15, 15, 16
16, 16, 17
17, 17, 18
18, 18, 19
19, 19, 20
20, 20, 21
** ... 1103 like lines cut
*ELEMENT, TYPE=B31, ELSET=E_FRAME
1395, 1008, 16
1396, 1013, 29
1397, 1018, 42
1398, 1023, 55
1399, 1028, 68
1400, 1033, 81
1401, 1038, 94
1402, 1043, 107
1403, 1048, 120
1404, 1053, 133
1405, 1058, 146
1406, 1073, 166
1407, 1078, 173
1408, 1083, 180
1409, 1088, 187
1410, 1093, 194
1411, 1098, 201
1412, 1103, 208
1413, 1108, 215
1414, 1113, 222
** ... 51 like lines cut
*ELSET, ELSET=E_SEC1
1, 2, 3, 4, 5, 6, 7, 8, 9, 10, 11, 12, 13, 14, 15, 16
17, 18, 19, 20, 21, 22, 23, 24, 25, 26, 27, 28, 29, 30, 31, 32
33, 34, 35, 36, 37, 38, 39, 40, 41, 42, 43, 44, 45, 46, 47, 48
49, 50, 51, 52, 53, 54, 55, 56, 57, 58, 59, 60, 61, 62, 63, 64
65, 66, 67, 68, 69, 70, 71, 72, 73, 74, 75, 76, 77, 78, 79, 80
81, 82, 83, 84, 85, 86, 87, 88, 89, 90, 91, 92, 93, 94, 95, 96
97, 98, 99, 100, 101, 102, 103, 104, 105, 106, 107, 108, 109, 110, 111, 112
113, 114, 115, 116, 117, 118, 119, 120, 121, 122, 123, 124, 125, 126, 127, 128
129, 130, 131, 132, 133, 134, 135, 136, 137, 138, 139, 140, 141, 142, 143, 144
145, 146, 147, 148, 149, 150, 151, 152, 153, 154, 155, 156, 157, 158, 159, 160
161, 162, 163, 164, 165, 166, 167, 168, 169, 170, 171, 172, 173, 174, 175, 176
177, 178, 179, 180, 181, 182, 183, 184, 185, 186, 187, 188, 189, 190, 191, 192
193, 194, 195, 196, 197, 198, 199, 200, 201, 202, 203, 204, 205, 206, 207, 208
209, 210, 211, 212, 213, 214, 215, 216, 217, 218, 219, 220, 221, 222, 223, 224
225, 226, 227, 228, 229, 230, 231, 232, 233, 234, 235, 236, 237, 238, 239, 240
241, 242, 243, 244, 245, 246, 247, 248, 249, 250, 251, 252, 253, 254, 255, 256
257, 258, 259, 260, 261, 262, 263, 264, 265, 266, 267, 268, 269, 270, 271, 272
273, 274, 275, 276, 277, 278, 279, 280, 281, 282, 283, 284, 285, 286, 287, 288
289, 290, 291, 292, 293, 294, 295, 296, 297, 298, 299, 300, 301, 302, 303, 304
305, 306, 307, 308, 309, 310, 311, 312, 313, 314, 315, 316, 317, 318, 319, 320
** ... 26 like lines cut
*ELSET, ELSET=E_SEC2
1001, 1002, 1003, 1004, 1005, 1006, 1007, 1008, 1009, 1010, 1011, 1012, 1013, 1014, 1015, 1016
1017, 1018, 1019, 1020, 1021, 1022, 1023, 1024, 1025, 1026, 1027, 1028, 1029, 1030, 1031, 1032
1033, 1034, 1035, 1036, 1037, 1038, 1039, 1040, 1041, 1042, 1043, 1044, 1045, 1046, 1047, 1048
1049, 1050, 1051, 1052, 1053, 1054, 1055, 1056, 1057, 1058, 1059, 1060, 1061, 1062, 1063, 1064
1065, 1066, 1067, 1068, 1069, 1070, 1071, 1072, 1073, 1074, 1075, 1076, 1077, 1078, 1079, 1080
1081, 1082, 1083, 1084, 1085, 1086, 1087, 1088, 1089, 1090, 1091, 1092, 1093, 1094, 1095, 1096
1097, 1098, 1099, 1100, 1101, 1102, 1103, 1104, 1105, 1106, 1107, 1108, 1109, 1110, 1111, 1112
1113, 1114, 1115, 1116, 1117, 1118, 1119, 1120, 1121, 1122, 1123, 1124, 1125, 1126, 1127, 1128
1129, 1130, 1131, 1132, 1133, 1134, 1135, 1136, 1137, 1138, 1139, 1140, 1141, 1142, 1143, 1144
1145, 1146, 1147, 1148, 1149, 1150, 1151, 1152, 1153, 1154, 1155, 1156, 1157, 1158, 1159, 1160
1161, 1162, 1163, 1164, 1165, 1166, 1167, 1168, 1169, 1170, 1171, 1172, 1173, 1174, 1175, 1176
1177, 1178, 1179, 1180, 1181, 1182, 1183, 1184, 1185, 1186, 1187, 1188, 1189, 1190, 1191, 1192
1193, 1194, 1195, 1196, 1197, 1198, 1199, 1200, 1201, 1202, 1203, 1204, 1205, 1206, 1207, 1208
1209, 1210, 1211, 1212, 1213, 1214, 1215, 1216, 1217, 1218, 1219, 1220, 1221, 1222, 1223, 1224
1225, 1226, 1227, 1228, 1229, 1230, 1231, 1232, 1233, 1234, 1235, 1236, 1237, 1238, 1239, 1240
1241, 1242, 1243, 1244, 1245, 1246, 1247, 1248, 1249, 1250, 1251, 1252, 1253, 1254, 1255, 1256
1257, 1258, 1259, 1260, 1261, 1262, 1263, 1264, 1265, 1266, 1267, 1268, 1269, 1270, 1271, 1272
1273, 1274, 1275, 1276, 1277, 1278, 1279, 1280, 1281, 1282, 1283, 1284, 1285, 1286, 1287, 1288
1289, 1290, 1291, 1292, 1293, 1294, 1295, 1296, 1297, 1298, 1299, 1300, 1301, 1302, 1303, 1304
1305, 1306, 1307, 1308, 1309, 1310, 1311, 1312, 1313, 1314, 1315, 1316, 1317, 1318, 1319, 1320
** ... 5 like lines cut
*ELSET, ELSET=E_SEC3
1395, 1396, 1397, 1398, 1399, 1400, 1401, 1402, 1403, 1404, 1405, 1406, 1407, 1408, 1409, 1410
1411, 1412, 1413, 1414, 1415, 1416, 1417, 1418, 1419, 1420, 1421, 1422, 1423, 1424, 1425, 1426
1427, 1428, 1429, 1430, 1431, 1432, 1433, 1434, 1435, 1436, 1437, 1438, 1439, 1440, 1441, 1442
1443, 1444, 1445, 1446, 1447, 1448, 1449, 1450, 1451, 1452, 1453, 1454, 1455, 1456, 1457, 1458
1459, 1460, 1461, 1462, 1463, 1464, 1465
*MATERIAL, NAME=MAT1
*ELASTIC
120000, 0.3
*DENSITY
1.26484805e-08
*MATERIAL, NAME=MAT2
*ELASTIC
120000, 0.3
*DENSITY
8.59881705e-09
*MATERIAL, NAME=MAT3
*ELASTIC
206000, 0.31
*DENSITY
1.01978381e-17
*SOLID SECTION, ELSET=E_SEC1, MATERIAL=MAT1
22298.692
*SOLID SECTION, ELSET=E_SEC2, MATERIAL=MAT2
8402.9797
*BEAM SECTION, ELSET=E_SEC3, MATERIAL=MAT3, SECTION=RECT
98.954535, 98.954535
1, 1, 1
*INITIAL CONDITIONS, TYPE=STRESS
** ccx_2.21_s7.76_element_ip_six_pk2_global; sigma = F_N / A_mm2 from MCT INI-EFORCE mean, else INIFORCE
1, 1, 2.853700e+02, 0.000000e+00, 4.180905e+02, 0.000000e+00, 3.454135e+02, 0.000000e+00
1, 2, 2.853700e+02, 0.000000e+00, 4.180905e+02, 0.000000e+00, 3.454135e+02, 0.000000e+00
1, 3, 2.853700e+02, 0.000000e+00, 4.180905e+02, 0.000000e+00, 3.454135e+02, 0.000000e+00
1, 4, 2.853700e+02, 0.000000e+00, 4.180905e+02, 0.000000e+00, 3.454135e+02, 0.000000e+00
1, 5, 2.853700e+02, 0.000000e+00, 4.180905e+02, 0.000000e+00, 3.454135e+02, 0.000000e+00
1, 6, 2.853700e+02, 0.000000e+00, 4.180905e+02, 0.000000e+00, 3.454135e+02, 0.000000e+00
1, 7, 2.853700e+02, 0.000000e+00, 4.180905e+02, 0.000000e+00, 3.454135e+02, 0.000000e+00
1, 8, 2.853700e+02, 0.000000e+00, 4.180905e+02, 0.000000e+00, 3.454135e+02, 0.000000e+00
2, 1, 2.846776e+02, 0.000000e+00, 4.204894e+02, 0.000000e+00, 3.459825e+02, 0.000000e+00
2, 2, 2.846776e+02, 0.000000e+00, 4.204894e+02, 0.000000e+00, 3.459825e+02, 0.000000e+00
2, 3, 2.846776e+02, 0.000000e+00, 4.204894e+02, 0.000000e+00, 3.459825e+02, 0.000000e+00
2, 4, 2.846776e+02, 0.000000e+00, 4.204894e+02, 0.000000e+00, 3.459825e+02, 0.000000e+00
2, 5, 2.846776e+02, 0.000000e+00, 4.204894e+02, 0.000000e+00, 3.459825e+02, 0.000000e+00
2, 6, 2.846776e+02, 0.000000e+00, 4.204894e+02, 0.000000e+00, 3.459825e+02, 0.000000e+00
2, 7, 2.846776e+02, 0.000000e+00, 4.204894e+02, 0.000000e+00, 3.459825e+02, 0.000000e+00
2, 8, 2.846776e+02, 0.000000e+00, 4.204894e+02, 0.000000e+00, 3.459825e+02, 0.000000e+00
3, 1, 3.667546e+02, 0.000000e+00, 1.806048e+02, 0.000000e+00, 2.573668e+02, 0.000000e+00
3, 2, 3.667546e+02, 0.000000e+00, 1.806048e+02, 0.000000e+00, 2.573668e+02, 0.000000e+00
3, 3, 3.667546e+02, 0.000000e+00, 1.806048e+02, 0.000000e+00, 2.573668e+02, 0.000000e+00
3, 4, 3.667546e+02, 0.000000e+00, 1.806048e+02, 0.000000e+00, 2.573668e+02, 0.000000e+00
** ... 8964 like lines cut
*BOUNDARY
1, 1, 1
1, 2, 2
1, 3, 3
154, 1, 1
154, 2, 2
154, 3, 3
450, 1, 1
450, 2, 2
450, 3, 3
728, 1, 1
728, 2, 2
728, 3, 3
729, 1, 1
729, 2, 2
729, 3, 3
730, 1, 1
730, 2, 2
730, 3, 3
1001, 1, 1
1001, 2, 2
** ... 34 like lines cut
*BOUNDARY
1, 1, 3
2, 1, 3
3, 1, 3
4, 1, 3
5, 1, 3
6, 1, 3
7, 1, 3
8, 1, 3
9, 1, 3
10, 1, 3
11, 1, 3
12, 1, 3
13, 1, 3
14, 1, 3
15, 1, 3
16, 1, 3
17, 1, 3
18, 1, 3
19, 1, 3
20, 1, 3
** ... 591 like lines cut
*STEP, NLGEOM
*STATIC
*DLOAD
E_CABLE, GRAV, 9806, 0.0, 0.0, -1.0
E_FRAME, GRAV, 9806, 0.0, 0.0, -1.0
*CLOAD
1, 3, -0.01
2, 3, -0.01
3, 3, -0.01
4, 3, -0.01
5, 3, -0.01
6, 3, -0.01
7, 3, -0.01
8, 3, -62715.3
9, 3, -2530
10, 3, -1320
11, 3, -1210
12, 3, -1320
13, 3, -2530
14, 3, -1320
15, 3, -1210
16, 3, -4500
17, 3, -2530
18, 3, -1320
19, 3, -1210
20, 3, -1320
** ... 1103 like lines cut
*NSET, NSET=N_MCT
1, 2, 3, 4, 5, 6, 7, 8, 9, 10, 11, 12, 13, 14, 15, 16
17, 18, 19, 20, 21, 22, 23, 24, 25, 26, 27, 28, 29, 30, 31, 32
33, 34, 35, 36, 37, 38, 39, 40, 41, 42, 43, 44, 45, 46, 47, 48
49, 50, 51, 52, 53, 54, 55, 56, 57, 58, 59, 60, 61, 62, 63, 64
65, 66, 67, 68, 69, 70, 71, 72, 73, 74, 75, 76, 77, 78, 79, 80
81, 82, 83, 84, 85, 86, 87, 88, 89, 90, 91, 92, 93, 94, 95, 96
97, 98, 99, 100, 101, 102, 103, 104, 105, 106, 107, 108, 109, 110, 111, 112
113, 114, 115, 116, 117, 118, 119, 120, 121, 122, 123, 124, 125, 126, 127, 128
129, 130, 131, 132, 133, 134, 135, 136, 137, 138, 139, 140, 141, 142, 143, 144
145, 146, 147, 148, 149, 150, 151, 152, 153, 154, 155, 156, 157, 158, 159, 160
161, 162, 163, 164, 165, 166, 167, 168, 169, 170, 171, 172, 173, 174, 175, 176
177, 178, 179, 180, 181, 182, 183, 184, 185, 186, 187, 188, 189, 190, 191, 192
193, 194, 195, 196, 197, 198, 199, 200, 201, 202, 203, 204, 205, 206, 207, 208
209, 210, 211, 212, 213, 214, 215, 216, 217, 218, 219, 220, 221, 222, 223, 224
225, 226, 227, 228, 229, 230, 231, 232, 233, 234, 235, 236, 237, 238, 239, 240
241, 242, 243, 244, 245, 246, 247, 248, 249, 250, 251, 252, 253, 254, 255, 256
257, 258, 259, 260, 261, 262, 263, 264, 265, 266, 267, 268, 269, 270, 271, 272
273, 274, 275, 276, 277, 278, 279, 280, 281, 282, 283, 284, 285, 286, 287, 288
289, 290, 291, 292, 293, 294, 295, 296, 297, 298, 299, 300, 301, 302, 303, 304
305, 306, 307, 308, 309, 310, 311, 312, 313, 314, 315, 316, 317, 318, 319, 320
** ... 51 like lines cut
*NODE FILE, NSET=N_MCT
U
*EL FILE
S, E
*NODE PRINT, NSET=N_MCT
U
*END STEP
*STEP, PERTURBATION
*FREQUENCY
40
*NODE FILE, NSET=N_MCT
U
*NODE FILE
U
*END STEP
