*HEADING
Corrected floor connection causal probe
*NODE,NSET=ALL
1,0.00000000000e+00,-2.76000000000e+00,5.00000000000e-02
2,0.00000000000e+00,-2.67000000000e+00,5.00000000000e-02
3,0.00000000000e+00,-2.71500000000e+00,5.00000000000e-02
4,0.00000000000e+00,-2.41000000000e+00,5.00000000000e-02
5,0.00000000000e+00,-2.54000000000e+00,5.00000000000e-02
6,0.00000000000e+00,-2.15000000000e+00,5.00000000000e-02
7,0.00000000000e+00,-2.28000000000e+00,5.00000000000e-02
8,0.00000000000e+00,-1.89000000000e+00,5.00000000000e-02
9,0.00000000000e+00,-2.02000000000e+00,5.00000000000e-02
10,0.00000000000e+00,-1.63000000000e+00,5.00000000000e-02
11,0.00000000000e+00,-1.76000000000e+00,5.00000000000e-02
12,0.00000000000e+00,-1.37000000000e+00,5.00000000000e-02
13,0.00000000000e+00,-1.50000000000e+00,5.00000000000e-02
14,0.00000000000e+00,-1.11000000000e+00,5.00000000000e-02
15,0.00000000000e+00,-1.24000000000e+00,5.00000000000e-02
16,0.00000000000e+00,-8.50000000000e-01,5.00000000000e-02
17,0.00000000000e+00,-9.80000000000e-01,5.00000000000e-02
18,0.00000000000e+00,8.50000000000e-01,5.00000000000e-02
19,0.00000000000e+00,0.00000000000e+00,5.00000000000e-02
20,0.00000000000e+00,1.11000000000e+00,5.00000000000e-02
** ... 98 like lines cut
*MATERIAL,NAME=STEEL
*ELASTIC
2.06000000000e+11,0.31
*DENSITY
7850.0
*ELEMENT,TYPE=B32R,ELSET=B0
1,1,3,2
2,2,5,4
3,4,7,6
4,6,9,8
5,8,11,10
6,10,13,12
7,12,15,14
8,14,17,16
9,16,19,18
10,18,21,20
11,20,23,22
12,22,25,24
13,24,27,26
14,26,29,28
15,28,31,30
16,30,33,32
17,32,35,34
*BEAM SECTION,ELSET=B0,MATERIAL=STEEL,SECTION=BOX
5.00000000000e-02,5.00000000000e-02,4.00000000000e-03,4.00000000000e-03,4.00000000000e-03,4.00000000000e-03
1.00000000000e+00,0.00000000000e+00,0.00000000000e+00
*ELEMENT,TYPE=SPRINGA,ELSET=C0
18,39,36
20,44,41
22,49,46
24,54,51
26,59,56
28,64,61
30,69,66
32,74,71
34,79,76
36,84,81
38,89,86
40,94,91
42,99,96
44,104,101
46,109,106
48,114,111
*SPRING,ELSET=C0,NONLINEAR
0.00000000000e+00,-1.19384098312e-01
0.00000000000e+00,-1.91962997658e-02
6.40875000000e+05,0.00000000000e+00
3.98567874742e+06,1.00187798546e-01
*ELEMENT,TYPE=SPRINGA,ELSET=C1
19,36,40
21,41,45
23,46,50
25,51,55
27,56,60
29,61,65
31,66,70
33,71,75
35,76,80
37,81,85
39,86,90
41,91,95
43,96,100
45,101,105
47,106,110
49,111,115
*SPRING,ELSET=C1,NONLINEAR
0.00000000000e+00,-9.51395210663e-02
0.00000000000e+00,-1.52975308323e-02
6.40856250000e+05,0.00000000000e+00
3.98565999740e+06,7.98419902340e-02
*ELSET,ELSET=STEELALL,GENERATE
1,17,1
*NSET,NSET=RB0
36
*RIGID BODY,NSET=RB0,REF NODE=38,ROT NODE=37
*NSET,NSET=RB1
41
*RIGID BODY,NSET=RB1,REF NODE=43,ROT NODE=42
*NSET,NSET=RB2
46
*RIGID BODY,NSET=RB2,REF NODE=48,ROT NODE=47
*NSET,NSET=RB3
51
*RIGID BODY,NSET=RB3,REF NODE=53,ROT NODE=52
*NSET,NSET=RB4
56
*RIGID BODY,NSET=RB4,REF NODE=58,ROT NODE=57
*NSET,NSET=RB5
61
*RIGID BODY,NSET=RB5,REF NODE=63,ROT NODE=62
*NSET,NSET=RB6
66
*RIGID BODY,NSET=RB6,REF NODE=68,ROT NODE=67
*NSET,NSET=RB7
71
*RIGID BODY,NSET=RB7,REF NODE=73,ROT NODE=72
*NSET,NSET=RB8
76
*RIGID BODY,NSET=RB8,REF NODE=78,ROT NODE=77
*NSET,NSET=RB9
81
*RIGID BODY,NSET=RB9,REF NODE=83,ROT NODE=82
*NSET,NSET=RB10
86
*RIGID BODY,NSET=RB10,REF NODE=88,ROT NODE=87
*NSET,NSET=RB11
91
*RIGID BODY,NSET=RB11,REF NODE=93,ROT NODE=92
*NSET,NSET=RB12
96
*RIGID BODY,NSET=RB12,REF NODE=98,ROT NODE=97
*NSET,NSET=RB13
101
*RIGID BODY,NSET=RB13,REF NODE=103,ROT NODE=102
*NSET,NSET=RB14
106
*RIGID BODY,NSET=RB14,REF NODE=108,ROT NODE=107
*NSET,NSET=RB15
111
*RIGID BODY,NSET=RB15,REF NODE=113,ROT NODE=112
*NSET,NSET=RB16
118
*RIGID BODY,NSET=RB16,REF NODE=116,ROT NODE=117
*EQUATION
2
38,1,1.00000000000e+00,2,1,-1.00000000000e+00
2
38,2,1.00000000000e+00,2,2,-1.00000000000e+00
2
38,3,1.00000000000e+00,2,3,-1.00000000000e+00
2
37,1,1.00000000000e+00,2,4,-1.00000000000e+00
2
37,2,1.00000000000e+00,2,5,-1.00000000000e+00
2
37,3,1.00000000000e+00,2,6,-1.00000000000e+00
2
43,1,1.00000000000e+00,4,1,-1.00000000000e+00
2
43,2,1.00000000000e+00,4,2,-1.00000000000e+00
2
43,3,1.00000000000e+00,4,3,-1.00000000000e+00
2
42,1,1.00000000000e+00,4,4,-1.00000000000e+00
** ... 184 like lines cut
*BOUNDARY
39,1,1
39,2,2
39,3,3
40,1,1
40,2,2
40,3,3
44,1,1
44,2,2
44,3,3
45,1,1
45,2,2
45,3,3
49,1,1
49,2,2
49,3,3
50,1,1
50,2,2
50,3,3
54,1,1
54,2,2
** ... 76 like lines cut
*NSET,NSET=OBS
1,2,3,4,5,6,7,8,9,10,11,12
13,14,15,16,17,18,19,20,21,22,23,24
25,26,27,28,29,30,31,32,33,34,35,36
37,38,39,40,41,42,43,44,45,46,47,48
49,50,51,52,53,54,55,56,57,58,59,60
61,62,63,64,65,66,67,68,69,70,71,72
73,74,75,76,77,78,79,80,81,82,83,84
85,86,87,88,89,90,91,92,93,94,95,96
97,98,99,100,101,102,103,104,105,106,107,108
109,110,111,112,113,114,115,116,117,118
*STEP,NLGEOM,INC=100
*STATIC
1.,1.,1.e-8,1.
*CLOAD
118,1,1.00000000000e+02
*NODE PRINT,NSET=OBS
U,RF
*NODE FILE,OUTPUT=2D
U
*END STEP
