*HEADING
Loaded beam section direct mesh point
*NODE,NSET=ALL
1,0.00000000000e+00,0.00000000000e+00,0.00000000000e+00
2,0.00000000000e+00,2.50000000000e-01,0.00000000000e+00
3,0.00000000000e+00,1.25000000000e-01,0.00000000000e+00
4,0.00000000000e+00,5.00000000000e-01,0.00000000000e+00
5,0.00000000000e+00,3.75000000000e-01,0.00000000000e+00
6,0.00000000000e+00,7.50000000000e-01,0.00000000000e+00
7,0.00000000000e+00,6.25000000000e-01,0.00000000000e+00
8,0.00000000000e+00,1.00000000000e+00,0.00000000000e+00
9,0.00000000000e+00,8.75000000000e-01,0.00000000000e+00
10,0.00000000000e+00,1.25000000000e+00,0.00000000000e+00
11,0.00000000000e+00,1.12500000000e+00,0.00000000000e+00
12,0.00000000000e+00,1.50000000000e+00,0.00000000000e+00
13,0.00000000000e+00,1.37500000000e+00,0.00000000000e+00
14,0.00000000000e+00,1.75000000000e+00,0.00000000000e+00
15,0.00000000000e+00,1.62500000000e+00,0.00000000000e+00
16,0.00000000000e+00,2.00000000000e+00,0.00000000000e+00
17,0.00000000000e+00,1.87500000000e+00,0.00000000000e+00
*MATERIAL,NAME=STEEL
*ELASTIC
2.06000000000e+11,0.31
*DENSITY
7850.0
*ELEMENT,TYPE=B32R,ELSET=B0
1,1,3,2
2,2,5,4
3,4,7,6
4,6,9,8
5,8,11,10
6,10,13,12
7,12,15,14
8,14,17,16
*BEAM SECTION,ELSET=B0,MATERIAL=STEEL,SECTION=BOX
1.60000000000e-01,1.60000000000e-01,4.00000000000e-03,4.00000000000e-03,4.00000000000e-03,4.00000000000e-03
1.00000000000e+00,0.00000000000e+00,0.00000000000e+00
*ELSET,ELSET=STEELALL,GENERATE
1,8,1
*BOUNDARY
1,1,1
1,2,2
1,3,3
1,4,4
1,5,5
1,6,6
*NSET,NSET=OBS
1,2,3,4,5,6,7,8,9,10,11,12
13,14,15,16,17
*STEP,NLGEOM,INC=100
*STATIC
1.,1.,1.e-8,1.
*CLOAD
8,3,-1.00000000000e+02
*NODE PRINT,NSET=OBS
U,RF
*NODE FILE,OUTPUT=2D
U
*END STEP
