! D10_DOWNPULL: 4 groups x 8 LINK180 stays. Total EA and ISTN per group match S10 equivalent.
! MD3-28: 八轮80t, 8 ropes/group, ear plates. MCT E728/E729 axial 1482.74 / 1570.17 kN.
! Removes CP 60000-60011 so 16-rope rigid translation no longer kills section roll at towers.
! TYPE1 = LINK180 (same as S10 equivalent). A_rope = 22298.691649500659/8 mm2.
/PREP7
KEYOPT,1,3,0
MP,EX,5,120000.000000
MP,PRXY,5,0.3
MP,DENS,5,0
R,50000,2787.336456187582,5.541207018279640E-04
R,50001,2787.336456187582,5.867945171703834E-04
TYPE,1
MAT,5
! --- group N_CW1 tower 90000 ---
N,90000,714504,21450,326522
D,90000,UX,0
D,90000,UY,0
D,90000,UZ,0
REAL,50000
EN,400000,90000,160
EN,400001,90000,1616
EN,400002,90000,3072
EN,400003,90000,4528
EN,400004,90000,5984
EN,400005,90000,7440
EN,400006,90000,8896
EN,400007,90000,10352
! --- group N_CW2 tower 90002 ---
N,90002,714504,-21450,326522
D,90002,UX,0
D,90002,UY,0
D,90002,UZ,0
REAL,50000
EN,400008,90002,14178
EN,400009,90002,15634
EN,400010,90002,17090
EN,400011,90002,18546
EN,400012,90002,20002
EN,400013,90002,21458
EN,400014,90002,22914
EN,400015,90002,24370
! --- group S_CW1 tower 90004 ---
N,90004,2995314,21450,326520
D,90004,UX,0
D,90004,UY,0
D,90004,UZ,0
REAL,50001
EN,400016,90004,444
EN,400017,90004,1900
EN,400018,90004,3356
EN,400019,90004,4812
EN,400020,90004,6268
EN,400021,90004,7724
EN,400022,90004,9180
EN,400023,90004,10636
! --- group S_CW2 tower 90006 ---
N,90006,2995314,-21450,326520
D,90006,UX,0
D,90006,UY,0
D,90006,UZ,0
REAL,50001
EN,400024,90006,14462
EN,400025,90006,15918
EN,400026,90006,17374
EN,400027,90006,18830
EN,400028,90006,20286
EN,400029,90006,21742
EN,400030,90006,23198
EN,400031,90006,24654
ALLSEL,ALL
FINISH
