*HEADING
Original ordinary gantry 296/1168 loaded fixture
*NODE,NSET=ALL
1,2.63700850000e+03,-2.41200000000e+01,1.13820474028e+02
2,2.63700850000e+03,-2.38600000000e+01,1.13820474028e+02
3,2.63700850000e+03,-2.36000000000e+01,1.13820474028e+02
4,2.63700850000e+03,-2.33400000000e+01,1.13820474028e+02
5,2.63700850000e+03,-2.30800000000e+01,1.13820474028e+02
6,2.63700850000e+03,-2.28200000000e+01,1.13820474028e+02
7,2.63700850000e+03,-2.25600000000e+01,1.13820474028e+02
8,2.63700850000e+03,-2.23000000000e+01,1.13820474028e+02
9,2.63700850000e+03,-2.06000000000e+01,1.13820474028e+02
10,2.63700850000e+03,-2.03400000000e+01,1.13820474028e+02
11,2.63700850000e+03,-2.00800000000e+01,1.13820474028e+02
12,2.63700850000e+03,-1.98200000000e+01,1.13820474028e+02
13,2.63700850000e+03,-1.95600000000e+01,1.13820474028e+02
14,2.63700850000e+03,-1.93000000000e+01,1.13820474028e+02
15,2.63700850000e+03,-1.90400000000e+01,1.13820474028e+02
16,2.63700850000e+03,-1.87800000000e+01,1.13820474028e+02
17,2.63700850000e+03,-2.39000000000e+01,1.21741342722e+02
18,2.63700850000e+03,-2.30500000000e+01,1.21741342722e+02
19,2.63700850000e+03,-2.22000000000e+01,1.21741342722e+02
20,2.63700850000e+03,-2.07000000000e+01,1.21741342722e+02
** ... 402 like lines cut
*MATERIAL,NAME=STEEL
*ELASTIC
2.06000000000e+11,0.31
*DENSITY
7850.0
*ELEMENT,TYPE=B32R,ELSET=B0
1,23,25,24
2,24,27,26
3,26,29,28
4,28,31,30
5,382,386,385
6,385,387,384
7,384,390,388
8,388,391,389
9,389,392,383
10,395,397,396
11,396,398,384
12,401,405,404
13,404,406,403
14,403,409,407
15,407,410,408
16,408,411,402
17,414,416,415
18,415,417,403
*BEAM SECTION,ELSET=B0,MATERIAL=STEEL,SECTION=BOX
1.60000000000e-01,1.60000000000e-01,4.00000000000e-03,4.00000000000e-03,4.00000000000e-03,4.00000000000e-03
1.00000000000e+00,0.00000000000e+00,0.00000000000e+00
*ELEMENT,TYPE=S8R,ELSET=S0
19,44,45,46,47,48,49,50,51
24,45,72,73,46,74,75,76,49
29,72,89,90,73,91,92,93,75
34,89,106,107,90,108,109,110,92
39,106,123,124,107,125,126,127,109
44,123,140,141,124,142,143,144,126
49,140,157,158,141,159,160,161,143
54,157,174,175,158,176,177,178,160
59,174,191,192,175,193,194,195,177
64,191,208,209,192,210,211,212,194
69,208,225,226,209,227,228,229,211
74,225,242,243,226,244,245,246,228
79,242,259,260,243,261,262,263,245
84,259,276,277,260,278,279,280,262
89,276,293,294,277,295,296,297,279
94,293,310,311,294,312,313,314,296
99,310,327,328,311,329,330,331,313
*SHELL SECTION,ELSET=S0,MATERIAL=STEEL
7.00000000000e-03
*ELEMENT,TYPE=S8R,ELSET=S1
20,52,53,46,47,54,55,50,56
21,47,46,57,58,50,59,60,61
22,62,63,45,44,64,65,48,66
23,44,45,67,68,48,69,70,71
25,53,77,73,46,78,79,76,55
26,46,73,80,57,76,81,82,59
27,63,83,72,45,84,85,74,65
28,45,72,86,67,74,87,88,69
30,77,94,90,73,95,96,93,79
31,73,90,97,80,93,98,99,81
32,83,100,89,72,101,102,91,85
33,72,89,103,86,91,104,105,87
35,94,111,107,90,112,113,110,96
36,90,107,114,97,110,115,116,98
37,100,117,106,89,118,119,108,102
38,89,106,120,103,108,121,122,104
40,111,128,124,107,129,130,127,113
41,107,124,131,114,127,132,133,115
42,117,134,123,106,135,136,125,119
43,106,123,137,120,125,138,139,121
** ... 48 like lines cut
*SHELL SECTION,ELSET=S1,MATERIAL=STEEL
1.10000000000e-02
*ELEMENT,TYPE=MASS,ELSET=M0
104,418
105,419
*MASS,ELSET=M0
6.44383875130e+02
*ELSET,ELSET=STEELALL,GENERATE
1,103,1
*NSET,NSET=RB0
17
*RIGID BODY,NSET=RB0,REF NODE=32,ROT NODE=33
*NSET,NSET=RB1
18,418
*RIGID BODY,NSET=RB1,REF NODE=34,ROT NODE=35
*NSET,NSET=RB2
19
*RIGID BODY,NSET=RB2,REF NODE=36,ROT NODE=37
*NSET,NSET=RB3
20
*RIGID BODY,NSET=RB3,REF NODE=38,ROT NODE=39
*NSET,NSET=RB4
21,419
*RIGID BODY,NSET=RB4,REF NODE=40,ROT NODE=41
*NSET,NSET=RB5
22
*RIGID BODY,NSET=RB5,REF NODE=42,ROT NODE=43
*NSET,NSET=RB6
52,62,47,44,58,68,51
*RIGID BODY,NSET=RB6,REF NODE=344,ROT NODE=345
*NSET,NSET=RB7
332,338,328,327,335,341,330
*RIGID BODY,NSET=RB7,REF NODE=346,ROT NODE=347
*NSET,NSET=RB8
1
*RIGID BODY,NSET=RB8,REF NODE=349,ROT NODE=348
*NSET,NSET=RB9
2
*RIGID BODY,NSET=RB9,REF NODE=351,ROT NODE=350
*NSET,NSET=RB10
3
*RIGID BODY,NSET=RB10,REF NODE=353,ROT NODE=352
*NSET,NSET=RB11
4
*RIGID BODY,NSET=RB11,REF NODE=355,ROT NODE=354
*NSET,NSET=RB12
5
*RIGID BODY,NSET=RB12,REF NODE=357,ROT NODE=356
*NSET,NSET=RB13
6
*RIGID BODY,NSET=RB13,REF NODE=359,ROT NODE=358
*NSET,NSET=RB14
7
*RIGID BODY,NSET=RB14,REF NODE=361,ROT NODE=360
*NSET,NSET=RB15
8
*RIGID BODY,NSET=RB15,REF NODE=363,ROT NODE=362
*NSET,NSET=RB16
9
*RIGID BODY,NSET=RB16,REF NODE=365,ROT NODE=364
*NSET,NSET=RB17
10
*RIGID BODY,NSET=RB17,REF NODE=367,ROT NODE=366
*NSET,NSET=RB18
11
*RIGID BODY,NSET=RB18,REF NODE=369,ROT NODE=368
*NSET,NSET=RB19
12
*RIGID BODY,NSET=RB19,REF NODE=371,ROT NODE=370
** ... 15 like lines cut
*EQUATION
4
32,1,1.00000000000e+00,23,1,1.16891517944e-01,25,1,-8.61128880392e-01
24,1,-2.55762637552e-01
4
33,1,1.00000000000e+00,23,4,1.16891517944e-01,25,4,-8.61128880392e-01
24,4,-2.55762637552e-01
4
32,2,1.00000000000e+00,23,2,1.16891517944e-01,25,2,-8.61128880392e-01
24,2,-2.55762637552e-01
4
33,2,1.00000000000e+00,23,5,1.16891517944e-01,25,5,-8.61128880392e-01
24,5,-2.55762637552e-01
4
32,3,1.00000000000e+00,23,3,1.16891517944e-01,25,3,-8.61128880392e-01
24,3,-2.55762637552e-01
4
33,3,1.00000000000e+00,23,6,1.16891517944e-01,25,6,-8.61128880392e-01
24,6,-2.55762637552e-01
4
34,1,1.00000000000e+00,24,1,-6.14106332972e-01,27,1,-4.87605028427e-01
** ... 412 like lines cut
*BOUNDARY
1,1,1
1,2,2
1,3,3
2,1,1
2,2,2
2,3,3
3,1,1
3,2,2
3,3,3
4,1,1
4,2,2
4,3,3
5,1,1
5,2,2
5,3,3
6,1,1
6,2,2
6,3,3
7,1,1
7,2,2
** ... 46 like lines cut
*NSET,NSET=OBS
1,2,3,4,5,6,7,8,9,10,11,12
13,14,15,16,17,18,19,20,21,22,23,24
25,26,27,28,29,30,31,32,33,34,35,36
37,38,39,40,41,42,43,44,45,46,47,48
49,50,51,52,53,54,55,56,57,58,59,60
61,62,63,64,65,66,67,68,69,70,71,72
73,74,75,76,77,78,79,80,81,82,83,84
85,86,87,88,89,90,91,92,93,94,95,96
97,98,99,100,101,102,103,104,105,106,107,108
109,110,111,112,113,114,115,116,117,118,119,120
121,122,123,124,125,126,127,128,129,130,131,132
133,134,135,136,137,138,139,140,141,142,143,144
145,146,147,148,149,150,151,152,153,154,155,156
157,158,159,160,161,162,163,164,165,166,167,168
169,170,171,172,173,174,175,176,177,178,179,180
181,182,183,184,185,186,187,188,189,190,191,192
193,194,195,196,197,198,199,200,201,202,203,204
205,206,207,208,209,210,211,212,213,214,215,216
217,218,219,220,221,222,223,224,225,226,227,228
229,230,231,232,233,234,235,236,237,238,239,240
** ... 16 like lines cut
*STEP,NLGEOM,INC=100
*STATIC
1.,1.,1.e-8,1.
*CLOAD
422,2,1.00000000000e+02
*NODE PRINT,NSET=OBS
U,RF
*NODE FILE,OUTPUT=2D
U
*END STEP
