*HEADING
Native hollow-section cantilever verification
*NODE,NSET=ALL
1,0.00000000000e+00,0.00000000000e+00,0.00000000000e+00
2,0.00000000000e+00,2.00000000000e+00,0.00000000000e+00
3,0.00000000000e+00,1.66666666667e-01,0.00000000000e+00
4,0.00000000000e+00,3.33333333333e-01,0.00000000000e+00
5,0.00000000000e+00,5.00000000000e-01,0.00000000000e+00
6,0.00000000000e+00,6.66666666667e-01,0.00000000000e+00
7,0.00000000000e+00,8.33333333333e-01,0.00000000000e+00
8,0.00000000000e+00,1.00000000000e+00,0.00000000000e+00
9,0.00000000000e+00,1.16666666667e+00,0.00000000000e+00
10,0.00000000000e+00,1.33333333333e+00,0.00000000000e+00
11,0.00000000000e+00,1.50000000000e+00,0.00000000000e+00
12,0.00000000000e+00,1.66666666667e+00,0.00000000000e+00
13,0.00000000000e+00,1.83333333333e+00,0.00000000000e+00
14,0.00000000000e+00,8.33333333333e-02,0.00000000000e+00
15,0.00000000000e+00,2.50000000000e-01,0.00000000000e+00
16,0.00000000000e+00,4.16666666667e-01,0.00000000000e+00
17,0.00000000000e+00,5.83333333333e-01,0.00000000000e+00
18,0.00000000000e+00,7.50000000000e-01,0.00000000000e+00
19,0.00000000000e+00,9.16666666667e-01,0.00000000000e+00
20,0.00000000000e+00,1.08333333333e+00,0.00000000000e+00
** ... 5 like lines cut
*MATERIAL,NAME=STEEL
*ELASTIC
2.06000000000e+11,0.31
*DENSITY
7850.0
*ELEMENT,TYPE=B32R,ELSET=B0
1,1,14,3
2,3,15,4
3,4,16,5
4,5,17,6
5,6,18,7
6,7,19,8
7,8,20,9
8,9,21,10
9,10,22,11
10,11,23,12
11,12,24,13
12,13,25,2
*BEAM SECTION,ELSET=B0,MATERIAL=STEEL,SECTION=PIPE
7.60000000000e-02,6.00000000000e-03
1.00000000000e+00,0.00000000000e+00,0.00000000000e+00
*ELSET,ELSET=STEELALL,GENERATE
1,12,1
*BOUNDARY
1,1,1
1,2,2
1,3,3
1,4,4
1,5,5
1,6,6
*NSET,NSET=OBS
1,2
*STEP,NLGEOM,INC=100
*STATIC
1.,1.,1.e-8,1.
*CLOAD
2,3,-1.00000000000e+02
*NODE PRINT,NSET=OBS
U,RF
*NODE FILE,OUTPUT=2D
U
*END STEP
