! ============================================================================
! 权威恒载唯一替换文件 V1（由 build_authoritative_mct_deadload_v1.py 自动生成）
! 权威来源：复核报告表1-1~1-3；原MCT SELFWEIGHT与二期CONLOAD。
! 单位：N, mm, tonne, s。不得与旧 apply_deck_accessory_mass21.inp 的质量叠加。
! 必须在纯MCT等效LINK180初始状态文件之后include：底索Aeq/16，门架索Aeq/6。
! 本文件不定义初始轴力/初应力，不改索截面，不改约束，不执行SOLVE。
! MCT的1e-5/1e-6 kN数值哨兵明确剔除；双幅因此比含哨兵原数少0.001348 kN。
! ============================================================================
/PREP7
ALLSEL,ALL
! 删除旧TYPE=3 MASS21，包括旧网片、方木和电缆质量；重复调用本文件也不会累计。
ESEL,S,TYPE,,3
*GET,AUTH_NM,ELEM,0,COUNT
*IF,AUTH_NM,GT,0,THEN
  EDELE,ALL
*ENDIF
ALLSEL,ALL
! 清除装配阶段已有的全部节点力，再建立唯一的MCT二期FZ映射。位移约束不受影响。
NSEL,ALL
FDELE,ALL,ALL
ALLSEL,ALL
! 材料1承担表1-1全部等效均布恒载；16根底索总面积必须精确等于MCT Aeq。
MP,DENS,1,1.264848052212931E-08
! 材料2承担表1-3门架索完整MCT线自重；6根总面积必须精确等于MCT Aeq。
MP,DENS,2,8.598817050785234E-09
! 材料3/4对应大/小横梁BEAM4：保留EA/EI和几何连接，但自重归零避免重复。
MP,DENS,3,0
MP,DENS,4,0
! 材料5承担MCT单元728/729下拉索自重；截面使用MCT底索等效Aeq。
MP,DENS,5,1.264848052212931E-08
! 本文件保持在/PREP7且不写ACEL；随后由apply_mct_selfweight_gravity.inp在/SOLU定义重力。
! 纯MCT等效模式不重建任何MASS21；表1-1全部由材料1等效密度随索单元自重产生。
! 施加表1-2/1-3物理二期恒载。每条F命令已换算为N并在相应实体索间等分。
F,8,FZ,-3.919706250000000E+03
F,736,FZ,-3.919706250000000E+03
F,1464,FZ,-3.919706250000000E+03
F,2192,FZ,-3.919706250000000E+03
F,2920,FZ,-3.919706250000000E+03
F,3648,FZ,-3.919706250000000E+03
F,4376,FZ,-3.919706250000000E+03
F,5104,FZ,-3.919706250000000E+03
F,5832,FZ,-3.919706250000000E+03
F,6560,FZ,-3.919706250000000E+03
F,7288,FZ,-3.919706250000000E+03
F,8016,FZ,-3.919706250000000E+03
F,8744,FZ,-3.919706250000000E+03
F,9472,FZ,-3.919706250000000E+03
F,10200,FZ,-3.919706250000000E+03
F,10928,FZ,-3.919706250000000E+03
F,14026,FZ,-3.919706250000000E+03
F,14754,FZ,-3.919706250000000E+03
F,15482,FZ,-3.919706250000000E+03
F,16210,FZ,-3.919706250000000E+03
! ... 23008 like lines cut
ALLSEL,ALL
! QA参数：不含MCT数值哨兵；总反力目标由求解后支座FZ反力校核。
AUTH_SW2=30836.492095738980
AUTH_FZ2=9451.134399999999
AUTH_TOT2=40287.626495738979
FINISH
