*HEADING
Corrected floor connection causal probe
*NODE,NSET=ALL
1,0.00000000000e+00,-2.88600000000e+00,7.50000000000e-02
2,0.00000000000e+00,-1.44300000000e+00,7.50000000000e-02
3,0.00000000000e+00,-2.16450000000e+00,7.50000000000e-02
4,0.00000000000e+00,0.00000000000e+00,7.50000000000e-02
5,0.00000000000e+00,-7.21500000000e-01,7.50000000000e-02
6,0.00000000000e+00,1.44300000000e+00,7.50000000000e-02
7,0.00000000000e+00,7.21500000000e-01,7.50000000000e-02
8,0.00000000000e+00,2.88600000000e+00,7.50000000000e-02
9,0.00000000000e+00,2.16450000000e+00,7.50000000000e-02
10,7.50000000000e-02,-2.67000000000e+00,-1.29994011203e-03
11,0.00000000000e+00,-2.67000000000e+00,7.50000000000e-02
12,0.00000000000e+00,-2.67000000000e+00,7.50000000000e-02
13,-5.00850000000e+00,-2.67000000000e+00,9.44203037640e-02
14,3.99150000000e+00,-2.67000000000e+00,-6.91828127620e-02
15,-7.50000000000e-02,-2.41000000000e+00,1.41390092489e-03
16,0.00000000000e+00,-2.41000000000e+00,7.50000000000e-02
17,0.00000000000e+00,-2.41000000000e+00,7.50000000000e-02
18,-5.00850000000e+00,-2.41000000000e+00,9.44203037640e-02
19,3.99150000000e+00,-2.41000000000e+00,-6.91828127620e-02
20,7.50000000000e-02,-2.15000000000e+00,-1.29994011203e-03
** ... 80 like lines cut
*MATERIAL,NAME=STEEL
*ELASTIC
2.06000000000e+11,0.31
*DENSITY
7850.0
*ELEMENT,TYPE=B32R,ELSET=B0
1,1,3,2
2,2,5,4
3,4,7,6
4,6,9,8
*BEAM SECTION,ELSET=B0,MATERIAL=STEEL,SECTION=BOX
1.00000000000e-01,1.00000000000e-01,4.00000000000e-03,4.00000000000e-03,4.00000000000e-03,4.00000000000e-03
1.00000000000e+00,0.00000000000e+00,0.00000000000e+00
*ELEMENT,TYPE=SPRINGA,ELSET=C0
5,13,10
9,23,20
13,33,30
17,43,40
21,53,50
25,63,60
29,73,70
33,83,80
*SPRING,ELSET=C0,NONLINEAR
0.00000000000e+00,-1.21171769497e-01
0.00000000000e+00,-1.94837473609e-02
6.40875000000e+05,0.00000000000e+00
3.98567874741e+06,1.01688022136e-01
*ELEMENT,TYPE=SPRINGA,ELSET=C1
6,10,14
10,20,24
14,30,34
18,40,44
22,50,54
26,60,64
30,70,74
34,80,84
*SPRING,ELSET=C1,NONLINEAR
0.00000000000e+00,-9.33518562603e-02
0.00000000000e+00,-1.50100913203e-02
6.40856250000e+05,0.00000000000e+00
3.98565999747e+06,7.83417649400e-02
*ELEMENT,TYPE=SPRINGA,ELSET=C2
7,18,15
11,28,25
15,38,35
19,48,45
23,58,55
27,68,65
31,78,75
35,88,85
*SPRING,ELSET=C2,NONLINEAR
0.00000000000e+00,-1.17596375964e-01
0.00000000000e+00,-1.89088439442e-02
6.40875000000e+05,0.00000000000e+00
3.98567874739e+06,9.86875320200e-02
*ELEMENT,TYPE=SPRINGA,ELSET=C3
8,15,19
12,25,29
16,35,39
20,45,49
24,55,59
28,65,69
32,75,79
36,85,89
*SPRING,ELSET=C3,NONLINEAR
0.00000000000e+00,-9.69272329784e-02
0.00000000000e+00,-1.55849779184e-02
6.40856250000e+05,0.00000000000e+00
3.98565999739e+06,8.13422550600e-02
*ELEMENT,TYPE=MASS,ELSET=M0
37,92
39,96
*MASS,ELSET=M0
1.62600000000e+01
*ELEMENT,TYPE=MASS,ELSET=M1
38,93
40,97
*MASS,ELSET=M1
2.77800000000e+01
*ELSET,ELSET=STEELALL,GENERATE
1,4,1
*NSET,NSET=RB0
10
*RIGID BODY,NSET=RB0,REF NODE=11,ROT NODE=12
*NSET,NSET=RB1
15
*RIGID BODY,NSET=RB1,REF NODE=16,ROT NODE=17
*NSET,NSET=RB2
20
*RIGID BODY,NSET=RB2,REF NODE=21,ROT NODE=22
*NSET,NSET=RB3
25
*RIGID BODY,NSET=RB3,REF NODE=26,ROT NODE=27
*NSET,NSET=RB4
30
*RIGID BODY,NSET=RB4,REF NODE=31,ROT NODE=32
*NSET,NSET=RB5
35
*RIGID BODY,NSET=RB5,REF NODE=36,ROT NODE=37
*NSET,NSET=RB6
40
*RIGID BODY,NSET=RB6,REF NODE=41,ROT NODE=42
*NSET,NSET=RB7
45
*RIGID BODY,NSET=RB7,REF NODE=46,ROT NODE=47
*NSET,NSET=RB8
50
*RIGID BODY,NSET=RB8,REF NODE=51,ROT NODE=52
*NSET,NSET=RB9
55
*RIGID BODY,NSET=RB9,REF NODE=56,ROT NODE=57
*NSET,NSET=RB10
60
*RIGID BODY,NSET=RB10,REF NODE=61,ROT NODE=62
*NSET,NSET=RB11
65
*RIGID BODY,NSET=RB11,REF NODE=66,ROT NODE=67
*NSET,NSET=RB12
70
*RIGID BODY,NSET=RB12,REF NODE=71,ROT NODE=72
*NSET,NSET=RB13
75
*RIGID BODY,NSET=RB13,REF NODE=76,ROT NODE=77
*NSET,NSET=RB14
80
*RIGID BODY,NSET=RB14,REF NODE=81,ROT NODE=82
*NSET,NSET=RB15
85
*RIGID BODY,NSET=RB15,REF NODE=86,ROT NODE=87
*NSET,NSET=RB16
92,93
*RIGID BODY,NSET=RB16,REF NODE=90,ROT NODE=91
*NSET,NSET=RB17
96,97
*RIGID BODY,NSET=RB17,REF NODE=94,ROT NODE=95
*NSET,NSET=RB18
100
*RIGID BODY,NSET=RB18,REF NODE=98,ROT NODE=99
*EQUATION
4
11,1,1.00000000000e+00,1,1,-5.95748635250e-01,3,1,-5.09126430124e-01
2,1,1.04875065374e-01
4
12,1,1.00000000000e+00,1,4,-5.95748635250e-01,3,4,-5.09126430124e-01
2,4,1.04875065374e-01
4
11,2,1.00000000000e+00,1,2,-5.95748635250e-01,3,2,-5.09126430124e-01
2,2,1.04875065374e-01
4
12,2,1.00000000000e+00,1,5,-5.95748635250e-01,3,5,-5.09126430124e-01
2,5,1.04875065374e-01
4
11,3,1.00000000000e+00,1,3,-5.95748635250e-01,3,3,-5.09126430124e-01
2,3,1.04875065374e-01
4
12,3,1.00000000000e+00,1,6,-5.95748635250e-01,3,6,-5.09126430124e-01
2,6,1.04875065374e-01
4
16,1,1.00000000000e+00,1,1,-2.28021240495e-01,3,1,-8.84220859273e-01
** ... 316 like lines cut
*BOUNDARY
13,1,1
13,2,2
13,3,3
14,1,1
14,2,2
14,3,3
18,1,1
18,2,2
18,3,3
19,1,1
19,2,2
19,3,3
23,1,1
23,2,2
23,3,3
24,1,1
24,2,2
24,3,3
28,1,1
28,2,2
** ... 76 like lines cut
*NSET,NSET=OBS
1,2,3,4,5,6,7,8,9,10,11,12
13,14,15,16,17,18,19,20,21,22,23,24
25,26,27,28,29,30,31,32,33,34,35,36
37,38,39,40,41,42,43,44,45,46,47,48
49,50,51,52,53,54,55,56,57,58,59,60
61,62,63,64,65,66,67,68,69,70,71,72
73,74,75,76,77,78,79,80,81,82,83,84
85,86,87,88,89,90,91,92,93,94,95,96
97,98,99,100
*STEP,NLGEOM,INC=100
*STATIC
1.,1.,1.e-8,1.
*CLOAD
100,1,1.00000000000e+02
*NODE PRINT,NSET=OBS
U,RF
*NODE FILE,OUTPUT=2D
U
*END STEP
