*HEADING
Pure rigid-body pendulum: below hinge, zero gravity
*NODE,NSET=ALL
1,0.00000000000e+00,0.00000000000e+00,0.00000000000e+00
2,0.00000000000e+00,0.00000000000e+00,0.00000000000e+00
3,0.00000000000e+00,0.00000000000e+00,-1.00000000000e+00
*MATERIAL,NAME=STEEL
*ELASTIC
2.06000000000e+11,0.31
*DENSITY
7850.0
*ELEMENT,TYPE=MASS,ELSET=M0
1,3
*MASS,ELSET=M0
1.00000000000e+02
*NSET,NSET=RB0
3
*RIGID BODY,NSET=RB0,REF NODE=1,ROT NODE=2
*BOUNDARY
1,1,1
1,2,2
1,3,3
2,1,1
2,3,3
*NSET,NSET=OBS
1,2,3
*STEP,NLGEOM,INC=100
*STATIC
1.,1.,1.e-8,1.
*CLOAD
3,1,1.00000000000e+00
*NODE PRINT,NSET=OBS
U,RF
*NODE FILE,OUTPUT=2D
U
*END STEP
