*HEADING
Corrected floor connection causal probe
*NODE,NSET=ALL
1,0.00000000000e+00,-2.76000000000e+00,5.00000000000e-02
2,0.00000000000e+00,-2.71500000000e+00,5.00000000000e-02
3,0.00000000000e+00,-2.73750000000e+00,5.00000000000e-02
4,0.00000000000e+00,-2.67000000000e+00,5.00000000000e-02
5,0.00000000000e+00,-2.69250000000e+00,5.00000000000e-02
6,0.00000000000e+00,-2.54000000000e+00,5.00000000000e-02
7,0.00000000000e+00,-2.60500000000e+00,5.00000000000e-02
8,0.00000000000e+00,-2.41000000000e+00,5.00000000000e-02
9,0.00000000000e+00,-2.47500000000e+00,5.00000000000e-02
10,0.00000000000e+00,-2.28000000000e+00,5.00000000000e-02
11,0.00000000000e+00,-2.34500000000e+00,5.00000000000e-02
12,0.00000000000e+00,-2.15000000000e+00,5.00000000000e-02
13,0.00000000000e+00,-2.21500000000e+00,5.00000000000e-02
14,0.00000000000e+00,-2.02000000000e+00,5.00000000000e-02
15,0.00000000000e+00,-2.08500000000e+00,5.00000000000e-02
16,0.00000000000e+00,-1.89000000000e+00,5.00000000000e-02
17,0.00000000000e+00,-1.95500000000e+00,5.00000000000e-02
18,0.00000000000e+00,-1.76000000000e+00,5.00000000000e-02
19,0.00000000000e+00,-1.82500000000e+00,5.00000000000e-02
20,0.00000000000e+00,-1.63000000000e+00,5.00000000000e-02
** ... 132 like lines cut
*MATERIAL,NAME=STEEL
*ELASTIC
2.06000000000e+11,0.31
*DENSITY
7850.0
*ELEMENT,TYPE=B32R,ELSET=B0
1,1,3,2
2,2,5,4
3,4,7,6
4,6,9,8
5,8,11,10
6,10,13,12
7,12,15,14
8,14,17,16
9,16,19,18
10,18,21,20
11,20,23,22
12,22,25,24
13,24,27,26
14,26,29,28
15,28,31,30
16,30,33,32
17,32,35,34
18,34,37,36
19,36,39,38
20,38,41,40
** ... 14 like lines cut
*BEAM SECTION,ELSET=B0,MATERIAL=STEEL,SECTION=BOX
5.00000000000e-02,5.00000000000e-02,4.00000000000e-03,4.00000000000e-03,4.00000000000e-03,4.00000000000e-03
1.00000000000e+00,0.00000000000e+00,0.00000000000e+00
*ELEMENT,TYPE=SPRINGA,ELSET=C0
35,73,70
37,78,75
39,83,80
41,88,85
43,93,90
45,98,95
47,103,100
49,108,105
51,113,110
53,118,115
55,123,120
57,128,125
59,133,130
61,138,135
63,143,140
65,148,145
*SPRING,ELSET=C0,NONLINEAR
0.00000000000e+00,-1.19384098312e-01
0.00000000000e+00,-1.91962997658e-02
6.40875000000e+05,0.00000000000e+00
3.98567874742e+06,1.00187798546e-01
*ELEMENT,TYPE=SPRINGA,ELSET=C1
36,70,74
38,75,79
40,80,84
42,85,89
44,90,94
46,95,99
48,100,104
50,105,109
52,110,114
54,115,119
56,120,124
58,125,129
60,130,134
62,135,139
64,140,144
66,145,149
*SPRING,ELSET=C1,NONLINEAR
0.00000000000e+00,-9.51395210663e-02
0.00000000000e+00,-1.52975308323e-02
6.40856250000e+05,0.00000000000e+00
3.98565999740e+06,7.98419902340e-02
*ELSET,ELSET=STEELALL,GENERATE
1,34,1
*NSET,NSET=RB0
70
*RIGID BODY,NSET=RB0,REF NODE=72,ROT NODE=71
*NSET,NSET=RB1
75
*RIGID BODY,NSET=RB1,REF NODE=77,ROT NODE=76
*NSET,NSET=RB2
80
*RIGID BODY,NSET=RB2,REF NODE=82,ROT NODE=81
*NSET,NSET=RB3
85
*RIGID BODY,NSET=RB3,REF NODE=87,ROT NODE=86
*NSET,NSET=RB4
90
*RIGID BODY,NSET=RB4,REF NODE=92,ROT NODE=91
*NSET,NSET=RB5
95
*RIGID BODY,NSET=RB5,REF NODE=97,ROT NODE=96
*NSET,NSET=RB6
100
*RIGID BODY,NSET=RB6,REF NODE=102,ROT NODE=101
*NSET,NSET=RB7
105
*RIGID BODY,NSET=RB7,REF NODE=107,ROT NODE=106
*NSET,NSET=RB8
110
*RIGID BODY,NSET=RB8,REF NODE=112,ROT NODE=111
*NSET,NSET=RB9
115
*RIGID BODY,NSET=RB9,REF NODE=117,ROT NODE=116
*NSET,NSET=RB10
120
*RIGID BODY,NSET=RB10,REF NODE=122,ROT NODE=121
*NSET,NSET=RB11
125
*RIGID BODY,NSET=RB11,REF NODE=127,ROT NODE=126
*NSET,NSET=RB12
130
*RIGID BODY,NSET=RB12,REF NODE=132,ROT NODE=131
*NSET,NSET=RB13
135
*RIGID BODY,NSET=RB13,REF NODE=137,ROT NODE=136
*NSET,NSET=RB14
140
*RIGID BODY,NSET=RB14,REF NODE=142,ROT NODE=141
*NSET,NSET=RB15
145
*RIGID BODY,NSET=RB15,REF NODE=147,ROT NODE=146
*NSET,NSET=RB16
152
*RIGID BODY,NSET=RB16,REF NODE=150,ROT NODE=151
*EQUATION
2
72,1,1.00000000000e+00,4,1,-1.00000000000e+00
2
72,2,1.00000000000e+00,4,2,-1.00000000000e+00
2
72,3,1.00000000000e+00,4,3,-1.00000000000e+00
2
71,1,1.00000000000e+00,4,4,-1.00000000000e+00
2
71,2,1.00000000000e+00,4,5,-1.00000000000e+00
2
71,3,1.00000000000e+00,4,6,-1.00000000000e+00
2
77,1,1.00000000000e+00,8,1,-1.00000000000e+00
2
77,2,1.00000000000e+00,8,2,-1.00000000000e+00
2
77,3,1.00000000000e+00,8,3,-1.00000000000e+00
2
76,1,1.00000000000e+00,8,4,-1.00000000000e+00
** ... 184 like lines cut
*BOUNDARY
73,1,1
73,2,2
73,3,3
74,1,1
74,2,2
74,3,3
78,1,1
78,2,2
78,3,3
79,1,1
79,2,2
79,3,3
83,1,1
83,2,2
83,3,3
84,1,1
84,2,2
84,3,3
88,1,1
88,2,2
** ... 76 like lines cut
*NSET,NSET=OBS
1,2,3,4,5,6,7,8,9,10,11,12
13,14,15,16,17,18,19,20,21,22,23,24
25,26,27,28,29,30,31,32,33,34,35,36
37,38,39,40,41,42,43,44,45,46,47,48
49,50,51,52,53,54,55,56,57,58,59,60
61,62,63,64,65,66,67,68,69,70,71,72
73,74,75,76,77,78,79,80,81,82,83,84
85,86,87,88,89,90,91,92,93,94,95,96
97,98,99,100,101,102,103,104,105,106,107,108
109,110,111,112,113,114,115,116,117,118,119,120
121,122,123,124,125,126,127,128,129,130,131,132
133,134,135,136,137,138,139,140,141,142,143,144
145,146,147,148,149,150,151,152
*STEP,NLGEOM,INC=100
*STATIC
1.,1.,1.e-8,1.
*DLOAD
STEELALL,GRAV,9.80600000000e+00,0.,0.,-1.
*CLOAD
*NODE PRINT,NSET=OBS
U,RF
*NODE FILE,OUTPUT=2D
U
*END STEP
