*HEADING
Directional relative-pin objectivity verification
*NODE,NSET=ALL
1,-2.00000000000e-01,0.00000000000e+00,0.00000000000e+00
2,0.00000000000e+00,0.00000000000e+00,0.00000000000e+00
3,-1.00000000000e-01,0.00000000000e+00,0.00000000000e+00
4,-1.50000000000e-01,0.00000000000e+00,0.00000000000e+00
5,-5.00000000000e-02,0.00000000000e+00,0.00000000000e+00
6,0.00000000000e+00,0.00000000000e+00,0.00000000000e+00
7,0.00000000000e+00,2.00000000000e+00,0.00000000000e+00
8,0.00000000000e+00,2.00000000000e-01,0.00000000000e+00
9,0.00000000000e+00,4.00000000000e-01,0.00000000000e+00
10,0.00000000000e+00,6.00000000000e-01,0.00000000000e+00
11,0.00000000000e+00,8.00000000000e-01,0.00000000000e+00
12,0.00000000000e+00,1.00000000000e+00,0.00000000000e+00
13,0.00000000000e+00,1.20000000000e+00,0.00000000000e+00
14,0.00000000000e+00,1.40000000000e+00,0.00000000000e+00
15,0.00000000000e+00,1.60000000000e+00,0.00000000000e+00
16,0.00000000000e+00,1.80000000000e+00,0.00000000000e+00
17,0.00000000000e+00,1.00000000000e-01,0.00000000000e+00
18,0.00000000000e+00,3.00000000000e-01,0.00000000000e+00
19,0.00000000000e+00,5.00000000000e-01,0.00000000000e+00
20,0.00000000000e+00,7.00000000000e-01,0.00000000000e+00
** ... 6 like lines cut
*MATERIAL,NAME=STEEL
*ELASTIC
2.06000000000e+11,0.31
*DENSITY
7850.0
*ELEMENT,TYPE=B32R,ELSET=B0
1,1,4,3
2,3,5,2
*BEAM SECTION,ELSET=B0,MATERIAL=STEEL,SECTION=BOX
1.60000000000e-01,1.60000000000e-01,4.00000000000e-03,4.00000000000e-03,4.00000000000e-03,4.00000000000e-03
0.00000000000e+00,1.00000000000e+00,0.00000000000e+00
*ELEMENT,TYPE=B32R,ELSET=B1
3,6,17,8
4,8,18,9
5,9,19,10
6,10,20,11
7,11,21,12
8,12,22,13
9,13,23,14
10,14,24,15
11,15,25,16
12,16,26,7
*BEAM SECTION,ELSET=B1,MATERIAL=STEEL,SECTION=BOX
1.60000000000e-01,1.60000000000e-01,4.00000000000e-03,4.00000000000e-03,4.00000000000e-03,4.00000000000e-03
1.00000000000e+00,0.00000000000e+00,0.00000000000e+00
*ELSET,ELSET=STEELALL,GENERATE
1,12,1
*EQUATION
2
6,1,1.00000000000e+00,2,1,-1.00000000000e+00
2
6,2,1.00000000000e+00,2,2,-1.00000000000e+00
2
6,3,1.00000000000e+00,2,3,-1.00000000000e+00
2
6,5,1.00000000000e+00,2,5,-1.00000000000e+00
2
6,6,1.00000000000e+00,2,6,-1.00000000000e+00
*BOUNDARY
1,1,1
1,2,2
1,3,3
1,4,4
1,5,5
1,6,6
2,1,1
2,2,2
2,3,3
2,4,4
2,5,5
2,6,6
*NSET,NSET=OBS
7,6
*STEP,NLGEOM,INC=4
*DYNAMIC,DIRECT
1.00000000e-06,1.00000000e-06
*CLOAD
1,4,0.0
1,5,0.0
1,6,0.0
2,4,0.0
2,5,0.0
2,6,0.0
6,4,0.0
6,5,0.0
6,6,0.0
*END STEP
*STEP,NLGEOM,INC=100
*STATIC
1.,1.,1.e-8,1.
*BOUNDARY
7,1,1,0.00000000000e+00
7,3,3,1.00000000000e-02
*NODE PRINT,NSET=OBS
U,RF
*NODE FILE,OUTPUT=2D
U
*END STEP
