/CLEAR,NOSTART                         ! 清空数据库但不重启 MAPDL，确保本约束测试不继承其他模型的节点、单元或边界条件。
/FILNAME,cw_u01_05_0715t225028_8a ! 使用本次 U01 manifest 绑定的唯一作业名，禁止复用历史前缀。
/TITLE,MPC184 PENALTY 1E11 TRANSLATION JOINT ! 设置标题，说明本题验证显式高罚刚度下的偏置刚臂与共点三平移关节。
/PREP7                                 ! 进入前处理器，以建立与最新猫道生成器相同的 MPC184 连接组合。
ET,1,BEAM188                           ! 定义 1 号单元类型为 BEAM188，提供官方要求的至少一个可变形结构单元。
KEYOPT,1,3,3                           ! 对 BEAM188 使用三次插值，避免支撑测试梁的低阶插值影响收敛稳定性。
MP,EX,1,200000                         ! 将测试梁弹性模量设为 200000 N/mm^2，代表普通钢材量级并仅用于提供可变形刚度。
MP,PRXY,1,0.3                          ! 将测试梁泊松比设为 0.3，给出钢材常用值以完整定义三维梁材料。
SECTYPE,1,BEAM,RECT,TESTBEAM           ! 定义 1 号矩形梁截面，名称仅用于标识本测试的支撑梁。
SECDATA,10,10                          ! 将矩形截面两边均设为 10 mm，使截面无强弱轴差异并避免干扰连接判断。
ET,72,MPC184                           ! 定义 72 号单元类型为 MPC184，与最新猫道生成器的刚性偏置臂类型号一致。
KEYOPT,72,1,1                          ! 将 72 号 MPC184 设为六自由度 rigid beam，用于表达主节点到接口位置的刚体偏置。
KEYOPT,72,2,0                          ! 对 rigid beam 使用直接消元，与最新生成器设置一致并避免额外拉格朗日乘子自由度。
KEYOPT,72,5,0                          ! 保留 rigid beam 几何刚度，使本测试覆盖大转动和后续预应力分析所需设置。
ET,73,MPC184                           ! 定义 73 号单元类型为 MPC184，与最新生成器的共点三平移关节类型号一致。
KEYOPT,73,1,16                         ! 将 73 号 MPC184 设为 general joint，使受约束相对自由度可由 SECJOINT 明确指定。
KEYOPT,73,2,1                          ! 对 general joint 使用罚函数法，与最新生成器保持一致并避免连接到直接消元刚臂时使用乘子法。
KEYOPT,73,4,1                          ! 只激活 UX、UY、UZ，模拟 LINK180 索节点没有转动自由度的真实接口。
SECTYPE,73,JOINT,GENE,V2UXYZ           ! 定义 73 号通用关节截面，名称 V2UXYZ 表示只约束三项相对平移。
LOCAL,9011,0,0,0,0,0,0,0              ! 建立 9011 号局部坐标系并令其与全局轴平行，作为关节 I 端初始基底。
LOCAL,9012,0,0,0,0,0,0,0              ! 建立 9012 号局部坐标系并令其与全局轴平行，作为关节 J 端初始基底。
SECJOINT,LSYS,9011,9012                ! 把两个全局平行局部坐标系绑定到 general joint 的 I、J 两端。
SECJOINT,RDOF,1,2,3                    ! 约束三个相对平移分量，同时不激活也不约束相对转动分量。
SECJOINT,PNLT,DISP,-1.0E11             ! 将三平移绝对罚因子显式设为1.0E11；负号表示直接给定罚因子而不是缩放内部默认值。
N,1,0,0,0                              ! 建立门架侧主节点 1，位于全局原点并作为 rigid beam 的 I 端独立节点。
N,2,1000,0,0                           ! 建立辅助节点 2，距主节点 1000 mm，代表偏置刚臂末端和关节 I 端。
N,3,1000,0,0                           ! 建立索侧节点 3，与辅助节点 2 严格共点，代表 general joint 的 J 端。
N,4,2000,0,0                           ! 建立测试梁固定端节点 4，距索侧节点 1000 mm，用于提供可变形单元和反力路径。
N,5,1000,0,100                         ! 建立 BEAM188 定向节点 5，沿全局正 Z 偏置 100 mm 以定义梁截面朝向。
TYPE,1                                 ! 激活 BEAM188 类型，准备创建索侧节点到固定端的可变形测试梁。
MAT,1                                  ! 激活 1 号钢材参数，使后续测试梁具有明确弹性刚度。
SECNUM,1                               ! 激活 1 号 10 mm×10 mm 矩形截面，避免使用未定义截面属性。
EN,1,3,4,5                             ! 建立节点 3 至 4 的 BEAM188，并用节点 5 明确截面方向。
TYPE,72                                ! 激活 MPC184 rigid beam 类型，准备创建主节点到接口位置的刚性偏置。
EN,2,1,2                               ! 用 rigid beam 连接主节点 1 与辅助节点 2，使主节点转动产生正确的偏置平移。
TYPE,73                                ! 激活 displacement-only general joint 类型，准备连接两个严格共点的接口节点。
SECNUM,73                              ! 激活只约束相对 UX、UY、UZ 的 73 号通用关节截面。
EN,3,2,3                               ! 用 general joint 连接辅助节点 2 与索侧节点 3，仅传递三向平移而不传递节点转角。
D,1,UX,0                               ! 固定主节点全局 X 平移，使后续运动仅来自给定转角的刚体运动学。
D,1,UY,0                               ! 固定主节点全局 Y 平移，避免把整体平移混入偏置转动位移。
D,1,UZ,0                               ! 固定主节点全局 Z 平移，使测试严格保持在 X-Y 平面内。
D,1,ROTX,0                             ! 固定主节点绕 X 转角，排除非目标扭转分量。
D,1,ROTY,0                             ! 固定主节点绕 Y 转角，排除非目标竖向转动分量。
D,1,ROTZ,0.1                           ! 对主节点施加 0.1 rad 绕 Z 转角，作为解析刚体位移的唯一输入条件。
D,4,ALL,0                              ! 固定可变形测试梁远端全部自由度，为约束运动建立稳定反力路径。
ALLSEL,ALL                             ! 恢复全选状态，确保所有节点和三类单元都进入后续求解。
FINISH                                 ! 退出前处理器，完成几何、单元、连接、边界和规定转角定义。
/SOLU                                  ! 进入求解器，以大变形静力分析检验 MPC184 组合的有限转动运动学。
ANTYPE,STATIC                          ! 选择静力分析，因为目标是给定转角下的最终几何约束关系而非惯性响应。
NLGEOM,ON                              ! 打开大变形，使 0.1 rad 转角按有限转动刚体关系更新而非只使用小角度近似。
NROPT,FULL                             ! 使用完全牛顿法，每次迭代更新切线矩阵以稳定求解梁变形和约束反力。
KBC,0                                  ! 将规定转角在子步间线性递增，避免一步施加 0.1 rad 导致不必要的收敛困难。
NSUBST,10,100,1                        ! 初始使用 10 个子步，并允许自动细分至 100 个；最小 1 个用于简单情况下快速完成。
AUTOTS,ON                              ! 允许求解器根据收敛情况自动调整子步，确保有限转动路径连续累积。
OUTRES,ALL,LAST                        ! 只保存最后平衡状态，结果足以检验最终解析位移并减少二进制输出。
SOLVE                                  ! 求解规定转角作用下的可变形梁与两类 MPC184 连接组合。
FINISH                                 ! 退出求解器，防止结果读取命令在错误处理器中执行。
/POST1                                 ! 进入通用后处理器，以读取辅助节点和索侧节点的最终三向位移。
SET,LAST                               ! 显式选择最后收敛子步，确保结果对应完整 0.1 rad 规定转角。
*GET,U2X,NODE,2,U,X                    ! 读取辅助节点 2 的 X 位移，用于核对 rigid beam 的有限转动径向缩短量。
*GET,U2Y,NODE,2,U,Y                    ! 读取辅助节点 2 的 Y 位移，用于核对 rigid beam 的有限转动切向位移。
*GET,U2Z,NODE,2,U,Z                    ! 读取辅助节点 2 的 Z 位移，理论上应为 0 mm。
*GET,U3X,NODE,3,U,X                    ! 读取索侧节点 3 的 X 位移，用于核对 general joint 是否传递辅助节点平移。
*GET,U3Y,NODE,3,U,Y                    ! 读取索侧节点 3 的 Y 位移，用于核对 general joint 是否传递辅助节点平移。
*GET,U3Z,NODE,3,U,Z                    ! 读取索侧节点 3 的 Z 位移，理论上应与辅助节点同为 0 mm。
*AFUN,RAD                              ! 明确把 APDL 三角函数角度单位设为弧度，与规定转角 0.1 rad 保持一致。
THETA=0.1                              ! 定义解析计算使用的转角常量 0.1 rad，数值与主节点 ROTZ 边界完全相同。
ARM=1000                               ! 定义刚性偏置臂长度 1000 mm，数值等于节点 1 至节点 2 的初始距离。
EXACT_UX=ARM*(COS(THETA)-1)            ! 按有限转动解析式计算 X 位移，理论值约为 -4.995834722 mm。
EXACT_UY=ARM*SIN(THETA)                ! 按有限转动解析式计算 Y 位移，理论值约为 99.833416647 mm。
*CFOPEN,mpc184_penalty_1e11_result,csv  ! 打开独立结果CSV；十列顺序沿用已知答案基准，便于与默认罚刚度和direct-link结果直接比较。
*VWRITE,U2X,U2Y,U2Z,U3X,U3Y,U3Z,EXACT_UX,EXACT_UY,U3X-U2X,U3Y-U2Y ! 写出两节点位移、解析值及共点关节误差；紧邻下一行为十列格式。
(F20.10,',',F20.10,',',F20.10,',',F20.10,',',F20.10,',',F20.10,',',F20.10,',',F20.10,',',F20.10,',',F20.10)
*CFCLOS                                 ! 关闭结果 CSV，确保全部运动学核对量完整落盘。
FINISH                                 ! 退出通用后处理器，完成约束组合的独立已知答案测试。
/EXIT,NOSAVE                           ! 正常退出且不保存数据库，避免测试数据库被误当成猫道平衡基态。
